28
U_U_8-MET_A_51-3ts0.pdb
N     -2.91021   0.70807   5.26725
C      -2.5232  -0.64634   4.84635
C     -3.63059  -1.68523   5.03242
O     -3.64767  -2.69741   4.33234
C     -1.19669  -1.10838   5.48891
C      0.00107  -0.21714   5.17523
S      0.31144   0.04635   3.41786
C      1.14415    1.6501   3.46904
P     -6.83174  -2.59513  -2.31742
O      -7.3278  -2.11048  -3.63992
O     -7.25237  -3.94194   -1.8309
O      -5.2192  -2.57761  -2.33133
C     -4.43919  -2.05879  -1.23794
C     -3.45853  -3.13131  -0.82259
O     -2.10791  -2.72414  -1.12681
C     -3.48688  -3.51638   0.64085
O     -3.18771  -4.92693   0.72141
C     -2.39259   -2.6346   1.23161
O     -1.73399  -3.18488   2.34948
C     -1.40618  -2.50327   0.07162
N     -0.66223  -1.19409  -0.00095
C      0.73001  -1.23355    0.0099
O      1.39248  -2.26986   0.03815
N       1.3373     1e-05     1e-05
C      0.70372   1.22867       0.0
O      1.39322   2.24588  -0.00743
C     -0.74431   1.19112   0.00364
C     -1.36447   0.00788  -0.01257
