42
BRU_A_8-DG_A_9-1p54.pdb
N     -8.08202   6.85946  -7.04548
C     -6.86866   7.35526  -6.60632
N      -6.9213   8.62179   -6.0795
C     -8.03818    9.4344  -5.99299
C     -9.22772   8.85379  -6.50646
C     -9.21329    7.6246  -7.00589
O     -5.82389   6.72392   -6.7008
O      -7.9396  10.57262  -5.53171
B     -10.72898   9.88598  -6.41337
C      -8.1269   5.47377  -7.52129
C     -9.41511   4.75087  -7.17558
C     -9.38676    3.6419  -8.20207
C     -8.80459   4.33763  -9.43664
O     -8.45864   2.66835  -7.74022
O     -8.05724   5.47303  -8.93829
C     -9.81996   4.77515  -10.46836
O     -10.86368   5.52365  -9.85502
P     -12.16181   5.96222  -10.67938
O     -12.26761   5.09695  -11.88139
O     -13.28304   6.02672  -9.71567
P     -8.46025   1.19559  -8.38854
O     -8.47091   1.36087  -9.85127
O        -9.53   0.40015  -7.72598
O      -7.0514   0.58429  -7.96433
C     -5.92626   0.67957  -8.83207
C      -4.6731   0.88517  -8.01976
O     -4.85266   2.08266  -7.22211
C      -4.3945  -0.24227  -7.02864
O     -2.98028  -0.44882  -6.91444
C     -5.02117   0.26156  -5.73758
C     -4.84448   1.76992  -5.84223
N     -5.88426   2.57649  -5.21342
C     -7.21981   2.27694  -5.07799
N     -7.90434   3.23803  -4.51341
C     -6.95859   4.22484  -4.24937
C      -7.0957   5.51725  -3.64411
O     -8.10948   6.07039  -3.21962
N     -5.87485   6.17314  -3.56212
C     -4.67629   5.66935   -4.0027
N     -3.59843   6.45353  -3.82397
N     -4.53788   4.48512  -4.57611
C     -5.70678   3.82243  -4.66262
