41
DA_A_6-DT_B_15-1p54.pdb
P      -13.003  -2.92473  -2.22832
O     -13.42979  -3.23735  -3.61354
O     -13.7723  -1.92368  -1.44676
O     -12.76508  -4.27774  -1.41048
C     -12.11677  -5.40312  -2.02396
C     -11.21267  -6.12369  -1.04421
O     -9.96696  -5.41418  -0.84959
C     -11.79056     -6.35   0.35575
O     -11.32491   -7.6007   0.86657
C     -11.15752  -5.23246   1.16076
C     -9.77336  -5.15721   0.53717
N       -9.126  -3.85595   0.65384
C       -9.704    -2.609   0.70534
N     -8.83489  -1.62233   0.75862
C     -7.60352   -2.2653   0.74706
C     -6.27317  -1.78382   0.76563
N     -5.94332  -0.48045    0.7495
N     -5.28293  -2.69442   0.78712
C     -5.60214   -3.9982   0.74963
N     -6.80532  -4.57501   0.69395
C       -7.773  -3.64479   0.70409
P      4.49633  -0.97978   4.12503
O      5.80936  -1.59157   4.40934
O      4.36116   0.01281   3.02053
O      3.46628  -2.17387   3.87496
C      3.10809  -3.04645   4.95038
C      2.18103  -4.13522    4.4653
O      0.87982  -3.59433   4.12783
C      2.67495   -4.8397   3.20892
O      2.32389  -6.21561   3.25609
C      1.87908  -4.17219   2.10994
C      0.55083  -3.99477   2.80817
N     -0.29916   -2.9607    2.2211
C     -1.59427  -3.28412   1.86828
O     -2.05565  -4.40902   1.96433
N      -2.3306  -2.23045   1.38788
C      -1.9062  -0.92295    1.2213
O     -2.69723  -0.07852   0.82966
C     -0.51744  -0.67378   1.56711
C      0.06111   0.69395   1.37639
C      0.19835  -1.69147   2.04743
