40
DA_A_3-DC_B_17-1p54.pdb
P     -6.73818  -1.94932  -0.65127
O     -6.14108  -1.66639  -1.97505
O     -7.33664  -0.84758   0.13683
O      -7.8053  -3.11243  -0.80467
C     -7.42671  -4.39077  -1.30934
C      -8.0057  -5.47612  -0.43457
O     -7.39548  -5.40694   0.87825
C     -9.50685  -5.34415  -0.20619
O     -10.0912  -6.64561  -0.16788
C     -9.59635  -4.62859   1.13176
C     -8.37419  -5.12989   1.87378
N     -7.79301  -4.16349   2.80888
C     -7.80571  -2.79387     2.715
N      -7.1791  -2.18799   3.69538
C     -6.72963  -3.23122   4.49834
C     -5.99419  -3.25323   5.70316
N     -5.54381  -2.15895   6.31947
N     -5.72757   -4.4556   6.25614
C     -6.16167   -5.5572   5.62676
N     -6.85335  -5.66723   4.48491
C     -7.10824  -4.45298    3.9655
P     -3.94668   0.12048  16.79831
O     -3.82833  -1.09327  17.64062
O     -3.62381   1.45121  17.36992
O     -3.10575  -0.06943  15.45828
C     -2.64541  -1.35494  15.05115
C     -3.79294  -2.33819  15.00022
O     -4.83547  -1.84135  14.12522
C     -3.38605  -3.70264  14.44613
O     -3.97341   -4.7669  15.19171
C     -3.92004  -3.69249   13.0312
C       -5.148  -2.82335  13.15532
N     -5.50723  -2.13814   11.9079
C     -6.24318   -2.8417  10.96333
O     -6.52713  -4.02266  11.19595
N     -6.62323   -2.2247    9.8197
C     -6.27916  -0.95552   9.60139
N     -6.68773  -0.38656   8.46405
C     -5.50302  -0.21366  10.54213
C     -5.14082  -0.84137  11.67391
