42
DA_A_6-DA_A_6-1p54.pdb
P     -9.65584  -5.08086  -0.62441
P     -9.65584  -5.08086  -0.62441
O     -10.05057   -5.4783  -1.99735
O     -10.05057   -5.4783  -1.99735
O     -10.56709  -4.21294   0.16368
O     -10.56709  -4.21294   0.16368
O     -9.17866  -6.36429   0.20096
O     -9.17866  -6.36429   0.20096
C     -8.36259  -7.37289  -0.41539
C     -8.36259  -7.37289  -0.41539
C     -7.33181  -7.91916   0.55188
C     -7.33181  -7.91916   0.55188
O     -6.21931  -7.00852   0.71357
O     -6.21931  -7.00852   0.71357
C     -7.83663  -8.22116   1.96574
C     -7.83663  -8.22116   1.96574
O     -7.15803   -9.3695   2.47842
O     -7.15803   -9.3695   2.47842
C     -7.38477  -7.00312   2.74671
C     -7.38477  -7.00312   2.74671
C     -6.04506    -6.705   2.09348
C     -6.04506    -6.705   2.09348
N      -5.6231  -5.31227   2.18425
N      -5.6231  -5.31227   2.18425
C     -6.40103  -4.17925   2.23614
C     -6.40103  -4.17925   2.23614
N     -5.70893   -3.0603   2.26184
N     -5.70893   -3.0603   2.26184
C     -4.38759  -3.48795   2.23045
C     -4.38759  -3.48795   2.23045
C     -3.15678  -2.79016   2.21651
C     -3.15678  -2.79016   2.21651
N     -3.05066  -1.45026   2.18117
N     -3.05066  -1.45026   2.18117
N     -2.02756   -3.5216   2.22576
N     -2.02756   -3.5216   2.22576
C     -2.12415  -4.86081   2.20726
C     -2.12415  -4.86081   2.20726
N     -3.21433  -5.63174   2.18234
N     -3.21433  -5.63174   2.18234
C       -4.324  -4.87677   2.20405
C       -4.324  -4.87677   2.20405
