41
DA_A_3-BRU_B_18-1p54.pdb
P     -8.23402  -2.39276  -0.99711
O     -7.44787  -2.35434  -2.24989
O     -9.25986  -1.35614  -0.73988
O     -8.89949  -3.82469  -0.84941
C     -8.09826  -5.00303  -0.80778
C     -8.55776  -5.89232   0.32203
O      -8.2992   -5.2306   1.58534
C     -10.05311  -6.18653   0.30164
O     -10.27266  -7.52823   0.73564
C     -10.62499  -5.16313   1.26898
C     -9.51488  -4.99108   2.28566
N     -9.43116  -3.65125   2.87212
C     -9.77736  -2.45752   2.28901
N     -9.56763  -1.41206   3.05313
C     -9.05616  -1.95505    4.2273
C     -8.63198  -1.36794   5.43904
N     -8.63227  -0.05363   5.66859
N     -8.19444  -2.18911   6.41721
C       -8.174  -3.50876    6.1802
N     -8.53706   -4.1807   5.07972
C     -8.97424  -3.33481   4.12973
N     -5.92261  -1.76603  10.82951
C     -6.44279  -2.19817   9.62218
N      -6.7878  -1.19998   8.74968
C     -6.66514   0.15461   8.95895
C     -6.08049   0.51303  10.21402
C     -5.73831  -0.43245  11.08551
O     -6.58092   -3.3708   9.34794
O     -7.17021   0.93124   8.15877
B      -5.8396   2.29958  10.50654
C      -5.6011  -2.79109  11.82737
C     -4.65119   -2.3455  12.92241
C     -5.06766   -3.2373  14.07815
C     -6.57516  -3.37442  13.87746
O     -4.47143   -4.5303  13.94912
O     -6.81254  -3.12475  12.47484
C     -7.43385    -2.469  14.73113
O     -6.95165  -1.12866  14.67748
P       -7.398  -0.06134  15.77308
O     -8.09137  -0.77039  16.87979
O     -6.22802   0.80377  16.07091
