41
DA_B_16-DT_B_15-1p54.pdb
P     -2.91071   4.48001   4.19419
O     -2.07273   3.98959   5.30615
O     -2.36216   4.51495   2.80808
O     -4.25046   3.61141   4.19747
C     -5.17731   3.73038   5.28053
C     -6.32786   2.76856   5.10369
O     -7.17212   3.16993   3.99656
C     -5.88781   1.34418   4.79345
O     -6.77412   0.41933   5.40802
C     -6.05618   1.25567   3.29326
C     -7.31688    2.0693   3.11466
N     -7.50226   2.59471   1.76336
C     -8.69314   2.34703   1.10999
O     -9.58481   1.65822   1.57683
N     -8.79539    2.9371  -0.12474
C      -7.8446   3.72099  -0.75634
O     -8.10195   4.22388  -1.83942
C     -6.60016   3.89328  -0.02697
C     -5.48316   4.67953  -0.64008
C     -6.50117   3.33323   1.17939
P     -6.26242  -1.06822   5.71143
O     -6.66855   -1.3702   7.10532
O     -4.83662  -1.18356   5.30769
O     -7.12083   -1.9686   4.72255
C     -8.53374  -1.85142    4.6993
C     -9.09577  -2.56863   3.49765
O     -9.01131  -1.74648    2.3124
C      -8.3947  -3.88082   3.16142
O     -9.38801  -4.84038   2.82772
C      -7.5484   -3.5324   1.94758
C     -8.40769  -2.47706   1.26329
N      -7.7241  -1.51328   0.39611
C     -6.47082  -0.97003   0.50888
N     -6.18512  -0.09813  -0.43076
C     -7.32588  -0.07006  -1.21849
C     -7.66254   0.64455  -2.38981
N     -6.86738    1.5386  -2.97993
N     -8.87243   0.40416   -2.9398
C      -9.6796  -0.48081   -2.3544
N     -9.48468  -1.20064  -1.25154
C     -8.27603  -0.94683  -0.72742
