42
DA_B_16-DA_B_16-1p54.pdb
P      1.90383  -7.60242   -9.4364
P      1.90383  -7.60242   -9.4364
O      1.07913  -8.60113  -10.15854
O      1.07913  -8.60113  -10.15854
O      1.25528  -6.59191  -8.56032
O      1.25528  -6.59191  -8.56032
O      2.99204  -8.36953  -8.56877
O      2.99204  -8.36953  -8.56877
C      3.94592  -9.20604  -9.20197
C      3.94592  -9.20604  -9.20197
C      5.03788  -9.57829  -8.23073
C      5.03788  -9.57829  -8.23073
O      6.02765  -8.53027   -8.1314
O      6.02765  -8.53027   -8.1314
C      4.55321  -9.84787  -6.80988
C      4.55321  -9.84787  -6.80988
O      5.23524  -10.99386  -6.31964
O      5.23524  -10.99386  -6.31964
C      4.97159  -8.60094  -6.04755
C      4.97159  -8.60094  -6.04755
C      6.25251  -8.20938  -6.77302
C      6.25251  -8.20938  -6.77302
N      6.65233  -6.80042  -6.71689
N      6.65233  -6.80042  -6.71689
C      5.87615  -5.67147  -6.67746
C      5.87615  -5.67147  -6.67746
N      6.56642  -4.55422  -6.67192
N      6.56642  -4.55422  -6.67192
C      7.88658    -4.977  -6.70421
C      7.88658    -4.977  -6.70421
C       9.1151  -4.27932  -6.70168
C       9.1151  -4.27932  -6.70168
N      9.22483  -2.94974  -6.70568
N      9.22483  -2.94974  -6.70568
N     10.24842  -5.01397  -6.69931
N     10.24842  -5.01397  -6.69931
C     10.15183  -6.34363  -6.70405
C     10.15183  -6.34363  -6.70405
N      9.06392  -7.11086  -6.72073
N      9.06392  -7.11086  -6.72073
C      7.95324  -6.35831  -6.71886
C      7.95324  -6.35831  -6.71886
