41
DA_B_13-DT_B_15-1p54.pdb
P     -7.94384  -1.82729   2.52665
O     -8.29573  -1.21935   3.84007
O     -8.74151  -1.50582   1.32909
O     -6.42539  -1.45905   2.25805
C     -5.48395  -1.47678   3.31916
C     -4.13208  -1.89381    2.7992
O     -4.21924  -3.24685   2.30585
C     -3.61262  -1.05915   1.63471
O     -2.20013   -0.9396   1.75643
C     -4.00692  -1.86156   0.41071
C     -3.98461  -3.29955   0.90471
N     -5.04097  -4.13446   0.33793
C     -6.32095  -3.74619   0.03095
N     -7.07887   -4.7184   -0.3971
C     -6.23982  -5.82366  -0.38266
C      -6.4495  -7.17496   -0.7212
N     -7.63178  -7.66537  -1.11621
N     -5.39494  -8.01676   -0.6258
C     -4.22096  -7.52758  -0.18612
N     -3.90796  -6.28551   0.17528
C     -4.97483  -5.47266   0.04838
P      2.55401  -4.31883  -3.47461
O      4.01008   -4.3775  -3.23888
O      1.98916  -3.28576  -4.38957
O      2.10245  -5.76282  -3.98488
C      2.16781  -6.88618   -3.1017
C      1.75973  -8.15076  -3.81896
O      0.34217  -8.14081    -4.119
C      2.46415  -8.34686  -5.15466
O       2.7143  -9.72853  -5.37139
C      1.43235  -7.87669  -6.15519
C      0.17013  -8.39206  -5.50369
N     -1.04761   -7.7105  -5.93846
C     -2.10304   -8.4671  -6.40754
O     -2.05558  -9.67891  -6.53694
N     -3.22235  -7.74085  -6.72831
C     -3.38093  -6.36826  -6.63746
O     -4.46104   -5.8676  -6.91109
C     -2.20979  -5.63819  -6.18386
C     -2.25362  -4.14402  -6.09829
C     -1.12404  -6.34074  -5.85776
