32
DC_A_1-DC_A_1-1p54.pdb
O      4.77207   4.09732  20.58127
O      4.77207   4.09732  20.58127
C      5.40364     3.018  21.28593
C      5.40364     3.018  21.28593
C      5.93956    2.0068  20.29904
C      5.93956    2.0068  20.29904
O      6.73871   2.70002  19.31687
O      6.73871   2.70002  19.31687
C      6.85405   0.94052  20.89083
C      6.85405   0.94052  20.89083
O      6.72673  -0.27337  20.13634
O      6.72673  -0.27337  20.13634
C      8.23485   1.55919  20.74611
C      8.23485   1.55919  20.74611
C      8.11407   2.38253  19.46353
C      8.11407   2.38253  19.46353
N      8.84562   3.66076  19.46323
N      8.84562   3.66076  19.46323
C     10.24014    3.6529  19.45439
C     10.24014    3.6529  19.45439
O     10.82948   2.56817  19.43188
O     10.82948   2.56817  19.43188
N     10.90926   4.83136  19.46282
N     10.90926   4.83136  19.46282
C     10.23563   5.97941  19.46282
C     10.23563   5.97941  19.46282
N      10.9303   7.11342  19.44759
N      10.9303   7.11342  19.44759
C      8.81107   6.01694  19.46638
C      8.81107   6.01694  19.46638
C      8.16416   4.84677  19.46727
C      8.16416   4.84677  19.46727
