39
DC_A_7-DT_A_5-1p54.pdb
P     -1.21095   1.17012  -1.08375
O     -0.28583    0.9653  -2.22534
O     -2.67446   1.03745   -1.2834
O     -0.75405    0.1623    0.0548
C      0.60382   0.15669   0.49058
C      0.77621  -0.81072    1.6347
O      0.28409  -0.24153   2.87124
C      0.02814  -2.13378    1.4457
O      0.82968  -3.18951   1.95534
C     -1.17175  -1.98096   2.36232
C     -0.52104  -1.21622   3.49718
N     -1.44049  -0.54747   4.41896
C      -1.0612  -0.46545   5.73248
O      0.02637  -0.85625   6.13129
N     -1.99874   0.09506   6.56254
C     -3.24187   0.58039   6.20078
O     -3.99514   1.02921   7.06113
C     -3.54967   0.49895   4.78738
C     -4.85362   1.03203   4.28424
C     -2.64214  -0.05268   3.98194
P      5.52688  -7.83311   4.93304
O      6.11821  -8.37185   6.18952
O      6.24274  -6.77452   4.19366
O      5.32583  -9.05743     3.939
C      4.67439  -10.23817   4.37229
C      5.07614  -11.38492   3.48714
O      4.47601  -11.15869   2.18641
C       6.5903  -11.45824   3.26892
O      7.05302  -12.80595   3.33201
C      6.79316  -10.87141   1.88472
C      5.46621  -11.12024   1.17708
N      5.09179  -10.06105   0.21065
C       5.5957  -10.1427  -1.08951
O      6.31752  -11.10247    -1.383
N      5.28325  -9.17966  -1.98655
C      4.49832  -8.15994  -1.62479
N      4.22462  -7.22052  -2.54626
C      3.96175  -8.05399  -0.30744
C      4.27927  -9.01908   0.56949
