35
DC_A_1-DC_A_2-1p54.pdb
O      5.45346    4.3699  16.51859
C      5.56935   3.14848  17.26363
C      5.79819   1.99211  16.31805
O      6.89329   2.32555  15.43861
C      6.19228   0.67713  16.98062
O      5.70934  -0.42072  16.19291
C      7.71069   0.74499  16.99307
C       8.0339   1.53003  15.72156
N      9.17797   2.45191  15.82305
C     10.46576   1.93443  15.95955
O     10.61649   0.70909  15.97701
N     11.51469   2.78647  16.06122
C      11.3115   4.10111  16.01385
N     12.37028   4.90199  16.09377
C     10.00733   4.65708  15.86956
C      8.98101   3.80481  15.77963
P      4.72946  -1.51031  16.85835
O      4.54843  -2.61987  15.88826
O      3.53762  -0.80408  17.37581
O      5.56453  -2.05551  18.10579
C      6.58047  -3.04893  17.93734
C      7.47875  -3.11194  19.15506
O       8.3035  -1.91917  19.27074
C      6.77232  -3.26652  20.50726
O       7.5967  -4.05464  21.35557
C      6.80012  -1.85566  21.05806
C      8.17058  -1.39966  20.59069
N      8.35257   0.05289  20.52918
C      9.64913   0.56428  20.40579
O     10.60891  -0.21772  20.41051
N      9.82576   1.89518  20.30013
C      8.77552   2.71549   20.3475
N      9.00771   4.02914  20.25819
C      7.44287   2.22614  20.49753
C      7.27763   0.90011  20.58111
