40
DC_A_2-DA_A_3-1p54.pdb
P      2.10938  -5.72108   8.33076
O      2.27583  -5.68377   6.85568
O      0.75351  -5.58935   8.90635
O      2.75387  -7.07437   8.88203
C      3.91103  -7.64656   8.26479
C      4.55576  -8.67075   9.17531
O      5.16872  -8.04151   10.3349
C      3.62875  -9.75929   9.72948
O      4.37404  -10.96367   9.84936
C      3.35305  -9.27349  11.13755
C      4.71136  -8.70643    11.509
N      4.69845  -7.73589  12.60659
C      5.91054  -7.39121  13.21473
O       6.9502  -7.95611  12.85044
N      5.91788  -6.46493  14.19229
C      4.77494  -5.90965  14.59665
N      4.83546  -5.01031  15.58411
C      3.51957  -6.25829  14.01319
C       3.5269  -7.16528  13.02833
P      3.83161  -12.31463   9.18815
O      3.43195  -12.00784   7.79707
O      2.84701  -12.90508  10.12358
O      5.12959  -13.22553   9.16298
C      6.32759  -12.77485   8.53542
C      7.50683  -13.03639   9.44066
O      7.38685  -12.21591  10.62939
C      7.59481  -14.47626   9.93265
O      8.96643  -14.86371  10.00511
C      6.93491  -14.42023   11.3007
C      7.27768  -13.02878  11.79259
N      6.26391  -12.42503  12.66084
C      4.90787  -12.63859  12.64088
N      4.24565  -11.93391  13.52732
C      5.23569  -11.21165  14.18554
C      5.18536  -10.27621  15.24164
N       4.0551  -9.87422  15.82563
N      6.35213  -9.75549  15.67759
C      7.48699  -10.14296  15.07754
N      7.66346  -11.00672    14.069
C      6.48416  -11.51158  13.66464
