40
DC_B_17-DA_B_16-1p54.pdb
P       3.9704  -9.76111   9.44882
O      3.75038  -9.94684  10.90352
O      2.91264  -9.14372   8.60667
O       5.3071  -8.92833   9.23633
C      6.54438  -9.43705   9.70638
C       7.6872  -8.63529   9.13596
O      8.01763  -9.07512   7.79984
C      7.42079  -7.13645   9.04153
O      8.59208   -6.4514    9.4629
C      7.16531   -6.9121   7.55983
C      8.06726    -7.964   6.92709
N      7.70579  -8.44201   5.58955
C      6.46806   -8.6122     5.026
N      6.50364  -9.10153   3.80779
C      7.85701  -9.25866   3.55028
C      8.56868  -9.72359   2.42184
N      7.99556  -10.17426   1.30457
N      9.91761  -9.71174   2.48806
C     10.50202  -9.27175   3.60261
N      9.94668  -8.82563   4.72735
C      8.60839  -8.84378    4.6347
P       8.4534  -5.05182  10.21402
O      9.77702  -4.75532  10.81136
O      7.24941  -5.11457  11.07908
O      8.16246  -4.03897   9.01885
C      9.20324  -3.24946   8.44994
C     10.35939  -4.12445   8.02108
O      9.89732  -5.14393   7.10103
C     11.45291  -3.35111   7.28591
O      12.7539  -3.75948   7.70327
C     11.23049  -3.70373   5.83214
C     10.67676  -5.10525   5.92049
N      9.81368  -5.46479   4.78891
C     10.41849  -5.90243    3.6178
O     11.65377  -5.93077   3.56604
N      9.64809  -6.27843   2.56988
C      8.31988   -6.2141   2.66252
N      7.60242  -6.60727   1.60666
C      7.66963  -5.74606   3.84399
C      8.45115  -5.38343   4.87542
