41
DG_A_4-DC_B_17-1p54.pdb
P     -10.17693   -3.4964  -2.81664
O     -10.94188  -4.22041  -3.85062
O     -10.54395   -2.0978  -2.48392
O     -10.21325  -4.35137  -1.47557
C     -9.65392  -5.65691  -1.44227
C     -9.68812  -6.20706   -0.0376
O     -8.70889  -5.51819   0.78538
C     -11.03664  -6.07329    0.6778
O     -11.41035   -7.3318   1.25298
C     -10.77028  -5.02807   1.74831
C     -9.28993  -5.22042   2.03515
N     -8.61138  -4.05272   2.58709
C     -8.77972    -2.744   2.21245
N     -8.06903  -1.90963   2.91986
C     -7.37471  -2.71779   3.80791
C      -6.4386  -2.37812   4.82238
O     -6.01216  -1.26464    5.1322
N     -5.98155  -3.50189   5.49616
C     -6.35669  -4.79307   5.22248
N     -5.79874  -5.73903   5.99577
N     -7.21603  -5.12993   4.26687
C     -7.68845  -4.04582   3.60894
P     -0.94976  -1.97137    14.368
O     -1.06029  -3.34035  14.92509
O     -0.35803  -0.88529  15.18785
O      -0.1879  -2.01862  12.96934
C     -0.00027  -3.24672  12.27166
C     -1.32137  -3.95776  12.08371
O     -2.25972  -3.09151  11.39926
C     -1.20448   -5.2189  11.22922
O     -1.97844   -6.2892  11.76676
C     -1.75127  -4.79645   9.88392
C     -2.77907  -3.75834  10.26423
N     -3.01716  -2.76012    9.2147
C     -3.89547  -3.08548   8.18926
O     -4.40468  -4.21245    8.1832
N     -4.16566  -2.17138   7.22778
C     -3.57971  -0.97459   7.26282
N      -3.8873   -0.1024   6.29904
C     -2.65447  -0.61939    8.2902
C     -2.40412  -1.53774   9.23892
