44
DG_A_4-DG_A_4-1p54.pdb
P     -2.14712  -5.45348    9.2869
P     -2.14712  -5.45348    9.2869
O     -3.11913  -6.55108    9.1168
O     -3.11913  -6.55108    9.1168
O     -2.58919  -4.17685   9.90029
O     -2.58919  -4.17685   9.90029
O      -0.9108  -6.00387  10.12315
O      -0.9108  -6.00387  10.12315
C     -0.11777  -7.06734   9.61469
C     -0.11777  -7.06734   9.61469
C       1.0651  -7.31823  10.51734
C       1.0651  -7.31823  10.51734
O      2.02423  -6.23501  10.38528
O      2.02423  -6.23501  10.38528
C      0.72985  -7.43007  12.00841
C      0.72985  -7.43007  12.00841
O      1.34009   -8.6045  12.55858
O      1.34009   -8.6045  12.55858
C      1.32216   -6.1632   12.6031
C      1.32216   -6.1632   12.6031
C      2.48475  -5.87279  11.66782
C      2.48475  -5.87279  11.66782
N      2.90738  -4.47708  11.62343
N      2.90738  -4.47708  11.62343
C       2.1003  -3.36803  11.61505
C       2.1003  -3.36803  11.61505
N       2.7657  -2.24601  11.62033
N       2.7657  -2.24601  11.62033
C      4.09659  -2.63656  11.61591
C      4.09659  -2.63656  11.61591
C      5.28465  -1.85597  11.61216
C      5.28465  -1.85597  11.61216
O      5.39758  -0.62937  11.59242
O      5.39758  -0.62937  11.59242
N       6.4216  -2.65162  11.61721
N       6.4216  -2.65162  11.61721
C      6.42466  -4.02372  11.60711
C      6.42466  -4.02372  11.60711
N      7.63574  -4.60448  11.61739
N      7.63574  -4.60448  11.61739
N      5.32463  -4.76861  11.59238
N      5.32463  -4.76861  11.59238
C       4.2031  -4.01142  11.60586
C       4.2031  -4.01142  11.60586
