42
DG_A_4-DT_B_15-1p54.pdb
P     -9.89974  -0.75407  -2.17506
O     -11.17995  -0.49891  -2.86385
O     -9.36692     0.257  -1.22884
O     -10.01206  -2.14237  -1.40646
C     -10.24084  -3.34475  -2.12779
C     -10.17343  -4.53379  -1.20121
O     -8.79714  -4.76747  -0.79874
C     -10.9919  -4.39824   0.08717
O     -11.79814  -5.56784   0.27792
C     -9.93358  -4.26785   1.16993
C     -8.76534  -5.04381   0.58358
N     -7.45292  -4.66327    1.0948
C      -7.0014  -3.39387   1.35213
N     -5.79616   -3.3664   1.85047
C      -5.4201  -4.70004   1.91217
C     -4.21005  -5.29504   2.36225
O     -3.19536   -4.7427   2.79004
N     -4.24988  -6.67853   2.26157
C     -5.30702  -7.40411   1.77295
N     -5.14471  -8.73741   1.76352
N      -6.4377  -6.86378   1.33166
C     -6.42679  -5.51477   1.43836
P      2.92446  -0.08057  11.24557
O      4.36278  -0.09218  11.57765
O      2.45943   0.54171    9.9728
O      2.41898  -1.59431  11.29499
C      2.38236  -2.29579  12.54111
C      1.93954   -3.7245  12.33408
O      0.53995  -3.78375  11.96361
C      2.69303  -4.43964  11.22071
O      2.87734  -5.80649  11.56176
C      1.73554  -4.35457  10.05336
C      0.41847  -4.53989  10.77047
N     -0.73905   -4.0371  10.03306
C     -1.81136  -4.88064   9.82093
O       -1.824  -6.05062  10.16516
N     -2.87352  -4.29619   9.17795
C     -2.96118  -2.98888      8.73
O      -3.9987  -2.59598   8.21876
C     -1.77419  -2.17954   8.94526
C     -1.74055  -0.76575   8.45348
C     -0.74446  -2.73897   9.58201
