41
DG_B_14-DC_B_12-1p54.pdb
P     -1.92586   7.02247   8.37766
O     -0.57389   7.56531   8.08468
O     -3.08524   7.94859   8.51756
O       -2.258   5.98061    7.2235
C     -1.21044   5.37898   6.48267
C     -1.78067   4.39302    5.4938
O     -2.40126   3.29596   6.19188
C     -2.85796   4.94412   4.55721
O     -2.74075    4.2215   3.33304
C      -4.1423    4.5014   5.23419
C     -3.70298   3.11984   5.66312
N     -4.49775   2.37407    6.6422
C     -4.25965   1.00715   6.76246
O     -3.43563   0.47659   6.00858
N     -4.93515   0.29469   7.69804
C     -5.82296   0.90215   8.48158
N      -6.4501   0.16248   9.40396
C     -6.10599   2.29094   8.36013
C     -5.43049    2.9826   7.43157
P     -1.13661  -0.39186  -2.46673
O      0.04579  -1.10693  -2.99254
O     -1.77802   0.68015  -3.26879
O     -2.23176  -1.46674  -2.03894
C     -1.89841  -2.41201  -1.04171
C     -3.06334  -3.31789  -0.73037
O     -4.01792  -2.65763   0.13509
C     -3.84749  -3.87946  -1.91589
O      -3.9481  -5.29796  -1.74574
C     -5.20025  -3.18707   -1.8133
C     -5.32746  -2.93865  -0.31327
N     -6.16658  -1.81462   0.08101
C     -6.15992  -0.54294  -0.43819
N     -7.03348   0.24636   0.13007
C     -7.65814    -0.555   1.08135
C     -8.70578  -0.25665   2.00502
O     -9.28949    0.8087   2.18171
N     -9.04208  -1.36442   2.77859
C     -8.43877  -2.59893   2.68993
N     -8.89423  -3.54981   3.52523
N     -7.45877  -2.88461   1.84371
C     -7.12759  -1.82719   1.07206
