44
DG_B_19-DG_B_19-1p54.pdb
P     -4.66356  -6.74478  -19.04823
P     -4.66356  -6.74478  -19.04823
O     -5.07791  -6.95216  -20.45271
O     -5.07791  -6.95216  -20.45271
O     -5.48273    -5.882  -18.16489
O     -5.48273    -5.882  -18.16489
O     -4.51214  -8.18015  -18.38504
O     -4.51214  -8.18015  -18.38504
C     -3.88218  -9.25099  -19.08947
C     -3.88218  -9.25099  -19.08947
C     -2.81742  -9.88919  -18.22687
C     -2.81742  -9.88919  -18.22687
O     -1.77867  -8.92155  -17.9832
O     -1.77867  -8.92155  -17.9832
C     -3.27545  -10.33047  -16.83963
C     -3.27545  -10.33047  -16.83963
O     -2.47755  -11.43802  -16.39384
O     -2.47755  -11.43802  -16.39384
C     -2.97436  -9.11325  -15.98845
C     -2.97436  -9.11325  -15.98845
C     -1.66395  -8.67631  -16.58943
C     -1.66395  -8.67631  -16.58943
N      -1.3004   -7.2769  -16.42683
N      -1.3004   -7.2769  -16.42683
C     -2.12766  -6.18052  -16.35516
C     -2.12766  -6.18052  -16.35516
N     -1.47171  -5.05492  -16.31541
N     -1.47171  -5.05492  -16.31541
C     -0.13541  -5.43753  -16.34959
C     -0.13541  -5.43753  -16.34959
C      1.04632  -4.66057  -16.36838
C      1.04632  -4.66057  -16.36838
O       1.1594  -3.44587  -16.40594
O       1.1594  -3.44587  -16.40594
N       2.1824  -5.45474  -16.36679
N       2.1824  -5.45474  -16.36679
C      2.18808  -6.82321  -16.36997
C      2.18808  -6.82321  -16.36997
N       3.3957  -7.41585  -16.35087
N       3.3957  -7.41585  -16.35087
N      1.09767  -7.55863  -16.38778
N      1.09767  -7.55863  -16.38778
C     -0.02073  -6.80375  -16.37549
C     -0.02073  -6.80375  -16.37549
