44
DG_B_14-DG_B_14-1p54.pdb
P      4.12714   3.10954  -1.83293
P      4.12714   3.10954  -1.83293
O       3.2854   1.91996  -2.08239
O       3.2854   1.91996  -2.08239
O      3.55781   4.29555  -1.14507
O      3.55781   4.29555  -1.14507
O       5.4549   2.64478  -1.08543
O       5.4549   2.64478  -1.08543
C      6.30624   1.71912  -1.73158
C      6.30624   1.71912  -1.73158
C      7.53294   1.42849  -0.90372
C      7.53294   1.42849  -0.90372
O       8.5059   2.49375  -1.02521
O       8.5059   2.49375  -1.02521
C       7.3247   1.18047   0.58987
C       7.3247   1.18047   0.58987
O      7.99135   -0.0403   0.93122
O      7.99135   -0.0403   0.93122
C      7.96654   2.39414   1.24935
C      7.96654   2.39414   1.24935
C      9.05159   2.77542   0.24671
C      9.05159   2.77542   0.24671
N      9.45449   4.17566   0.24037
N      9.45449   4.17566   0.24037
C      8.63896   5.28096   0.24067
C      8.63896   5.28096   0.24067
N      9.30313   6.40693   0.23107
N      9.30313   6.40693   0.23107
C     10.64044   6.02105   0.22763
C     10.64044   6.02105   0.22763
C     11.83426   6.80495   0.22896
C     11.83426   6.80495   0.22896
O     11.94687   8.02724   0.21326
O     11.94687   8.02724   0.21326
N     12.97514   6.00681   0.23455
N     12.97514   6.00681   0.23455
C     12.97269   4.62995   0.22337
C     12.97269   4.62995   0.22337
N      14.1759   4.02859   0.22489
N      14.1759   4.02859   0.22489
N     11.87118   3.89195    0.2118
N     11.87118   3.89195    0.2118
C     10.75189   4.64715   0.22219
C     10.75189   4.64715   0.22219
