45
A_U_15-G_U_4-3ts0.pdb
P     -2.85044  55.05144  -5.28697
O     -3.09606  56.27836  -4.48509
O     -3.68531  54.76572  -6.49362
O     -1.33394   55.1001  -5.82245
C      -0.2071  54.84782  -4.97423
C      1.00794  54.36083  -5.74705
O      0.75885  53.10657   -6.4346
C      1.52798  55.29177  -6.83227
O      2.25406  56.38054  -6.27671
C      2.37498  54.31894  -7.64679
O      3.62263  54.02355  -7.05294
C      1.48206  53.08254  -7.65073
N      0.54898  53.00844   -8.7839
C     -0.82382  53.12639  -8.75921
N     -1.40541  53.00877   -9.9225
C     -0.34636  52.79776  -10.78479
C     -0.35263  52.56212  -12.18134
O     -1.34156  52.48822  -12.92569
N      0.92662  52.37331  -12.70599
C      2.07464  52.39713  -11.94794
N       3.2304  52.21781  -12.60283
N      2.09278  52.57231  -10.62884
C      0.85389  52.77947  -10.10948
P     -1.50462  54.72183  -25.88111
O     -0.95175  55.26643  -27.13739
O     -2.69551  53.83643  -25.91719
O     -0.28944  53.96484  -25.17401
C     -0.37686  53.21253  -23.9688
C      0.94604  53.34834  -23.23871
O      0.92893  54.49597  -22.34132
C      1.34888  52.19389  -22.33487
O      1.82266  51.08549  -23.07856
C       2.4004  52.88886  -21.46835
O      3.61684  53.18225  -22.14829
C      1.66174  54.18637  -21.16588
N      0.75854  54.22269  -20.00915
C     -0.61642  54.16985  -20.02263
N     -1.18915  54.33788  -18.85039
C      -0.1128  54.53778  -18.00266
C     -0.02687   54.7916  -16.61274
N     -1.09734  54.89281  -15.82052
N      1.20537  54.93754  -16.06692
C      2.28679  54.88836  -16.86732
N      2.33038  54.68293  -18.1901
C      1.09449  54.48919  -18.70086
