42
A_U_15-C_U_16-3ts0.pdb
P     -40.48713  -0.43775   4.47558
O     -41.31492  -0.46789   5.69802
O     -39.80745    0.8183   4.07082
O     -39.40833  -1.59994   4.66312
C     -38.34266  -1.88764   3.76438
C     -38.08734  -3.38242   3.80893
O     -38.90181  -4.07839   2.82154
C     -36.67292   -3.8433   3.49437
O     -35.7929  -3.61598   4.58065
C     -36.93792   -5.3151   3.17331
O     -37.27216  -6.10953   4.30703
C     -38.16293  -5.16283   2.28067
N     -37.95726  -4.93944   0.84439
C     -38.08006   -3.7526   0.15896
N     -37.95362  -3.85086  -1.14671
C     -37.75344  -5.20722  -1.33993
C     -37.56128  -5.98711  -2.50549
N     -37.54798   -5.4703  -3.73695
N     -37.38254  -7.32253  -2.35599
C     -37.44614   -7.8583  -1.12253
N     -37.64779  -7.23181   0.04396
C     -37.77117  -5.89714  -0.12704
P     -34.22871  -3.40635   4.32262
O     -33.67927  -2.81504   5.56203
O     -33.96938  -2.78021   2.99872
O     -33.76995  -4.93206   4.27565
C     -32.79688  -5.40652    3.3701
C     -33.02104   -6.8912   3.17273
O     -34.26729  -7.08995   2.45645
C     -31.97278   -7.5242   2.27637
O     -30.8418  -7.96701   2.97743
C     -32.73195  -8.59059   1.50421
O     -32.91494  -9.81539   2.19926
C     -34.04266  -7.84061   1.27621
N     -34.07314  -6.94022   0.03903
C     -34.08425  -7.52876  -1.25272
O     -34.07036  -8.76388  -1.38825
N     -34.17047  -6.71874  -2.34909
C     -34.22703  -5.38916  -2.20566
N     -34.29987  -4.66496  -3.31418
C     -34.20951  -4.76122  -0.91716
C     -34.14144  -5.56429   0.15939
