29
A_U_15-VAL_A_49-3ts0.pdb
N     -4.16935   1.15063  -8.48461
C     -2.74451   1.02786  -8.18955
C     -2.29259  -0.32681   -7.6264
O     -1.27483  -0.84686   -8.0918
C     -2.06173   2.27514  -7.60327
C     -3.06678   3.32839  -7.18454
C      -1.0921   1.93365  -6.49455
P     -7.49293  -2.39976  -1.58894
O     -8.13198  -3.51922  -2.30929
O     -8.32118   -1.4643  -0.78745
O     -6.38196  -3.07082  -0.65883
C     -5.56788  -2.37929   0.28203
C      -4.2262  -3.08475   0.34335
O     -3.30068  -2.52704  -0.63391
C     -3.46277  -2.98741    1.6547
O     -4.00728  -3.84244    2.6439
C     -2.06023   -3.3641    1.1746
O      -1.9084  -4.73879     0.835
C     -1.98974  -2.51761  -0.08996
N     -1.52293  -1.13038   0.02315
C     -2.28954    0.0121  -0.00052
N     -1.60796   1.13719   0.00327
C     -0.29241   0.70541   0.00841
C      0.94042   1.40091       0.0
N      1.02792   2.73344  -0.02175
N      2.08315   0.67181   0.01513
C      2.00381   -0.6718  -0.01512
N       0.9048  -1.43703  -0.03598
C      -0.2193  -0.68815   0.00171
