43
C_U_18-G_U_4-3ts0.pdb
P     -3.71767    8.1203  -64.39089
O     -2.74573   8.40149  -65.47944
O      -4.9169   8.99491  -64.21318
O     -4.30308   6.63836  -64.61459
C     -3.54433   5.45711  -64.3285
C     -4.42574   4.25418  -64.03388
O     -5.26801   4.45872  -62.86911
C     -5.39341   3.84784  -65.13536
O       -4.724   3.16412  -66.18687
C     -6.36765   2.98363  -64.34086
O     -5.87151   1.69195  -64.05454
C     -6.50454   3.79697   -63.058
N     -7.59799   4.77897  -63.07291
C     -7.50116    6.1535  -63.09227
N     -8.64479   6.78394  -63.09226
C     -9.57051   5.75813  -63.0718
C     -10.98474   5.81936  -63.02577
O     -11.69106   6.83766  -62.98491
N     -11.58227    4.5586  -62.99703
C     -10.87577   3.37792  -62.99743
N     -11.59584   2.24734  -62.98709
N     -9.54697   3.30496  -62.99489
C     -8.95381   4.52688  -63.04525
P     -12.4712   -0.6378  -55.19259
O     -12.75221  -1.84733  -54.36883
O     -13.20188   0.61952  -54.90867
O     -10.90133  -0.33821  -55.15576
C     -9.99984  -1.23242  -55.82156
C     -8.70739  -0.52619  -56.1456
O     -8.95907   0.61277  -56.98849
C     -8.12685   0.12195  -54.92169
O      -7.5104   -0.8769  -54.13492
C     -7.25433   1.25124  -55.47576
O     -6.00053   0.83747  -55.9839
C     -8.13174   1.70478  -56.62449
N     -8.94833   2.96758  -56.46846
C     -8.34539   4.24671  -56.50642
O     -7.11387   4.34162  -56.60437
N     -9.14208   5.36732  -56.46617
C     -10.48152   5.25717  -56.41581
N     -11.23647   6.36697  -56.38148
C     -11.10935   3.96946  -56.36619
C     -10.3199   2.87954  -56.41115
