43
C_U_17-G_U_2-3ts0.pdb
P     -3.78196  10.40451  -61.67284
O     -2.80611  11.17633  -62.47754
O     -5.19198   10.4248  -62.11346
O     -3.31197     8.888  -61.58276
C     -1.96224   8.54665  -61.32907
C     -1.84744   7.06981  -61.0408
O     -2.69299   6.74789  -59.90586
C     -2.37452   6.14422  -62.12127
O     -1.54341   6.04969  -63.25294
C     -2.53226   4.86918  -61.31021
O     -1.31894   4.22739  -60.97849
C     -3.21183    5.4301  -60.06034
N     -4.68466   5.43037  -60.17676
C     -5.51182    6.5026  -60.45175
N     -6.77433   6.20881  -60.54101
C     -6.79909   4.83496  -60.33625
C      -7.9036     3.934  -60.33526
O     -9.09651   4.19644  -60.58493
N      -7.4946   2.60212  -60.14542
C     -6.18484   2.20655  -59.96018
N     -5.98146   0.91707  -59.72568
N      -5.1478   3.03351  -59.93475
C     -5.52242   4.33454  -60.12662
P     -19.13143  -1.53208  -61.46799
O     -20.04567  -2.17337  -60.49561
O     -19.00573  -0.04843  -61.47427
O     -17.63032  -2.07963  -61.30906
C     -17.40995  -3.47841  -61.30773
C     -16.06688  -3.83647  -61.90111
O     -15.7487  -2.99499  -63.02764
C     -14.90421  -3.57052  -60.98585
O     -14.85836  -4.54264  -60.00203
C     -13.74127  -3.58566  -61.96622
O     -13.3443  -4.83537  -62.48415
C     -14.35174  -2.75916  -63.07566
N     -14.04494  -1.27644  -63.01058
C     -12.73053  -0.82787  -63.22643
O     -11.83016  -1.66329  -63.41933
N     -12.48742   0.52801  -63.22259
C     -13.48608   1.40227  -63.03072
N     -13.2042   2.70114  -63.06121
C     -14.82935   0.96122  -62.80772
C     -15.05634  -0.36377  -62.8075
