43
C_U_18-G_U_3-3ts0.pdb
P     -3.15786   9.84432  -64.35576
O     -1.97344  10.03449  -65.22228
O     -4.34442   10.7182  -64.55137
O     -3.71924   8.35534  -64.53079
C     -2.88834   7.22933  -64.27991
C      -3.6998   5.95992  -64.10049
O     -4.52015   6.00044  -62.89085
C     -4.68498   5.54834  -65.19937
O     -4.11315   5.09607  -66.43327
C     -5.37347    4.4274  -64.43508
O     -4.56961   3.25494  -64.34569
C     -5.61609   5.11294  -63.07861
N     -6.88738   5.85634  -63.07412
C     -7.09983   7.22073  -63.16059
N     -8.36225    7.5735  -63.1807
C     -9.03585   6.35849  -63.15872
C     -10.43046   6.07277  -63.1744
O     -11.36163   6.89448  -63.18437
N     -10.70304   4.69382  -63.14333
C     -9.73488   3.70817  -63.08286
N     -10.13249   2.43383  -63.01372
N     -8.43238   3.96324  -63.04552
C     -8.14797   5.29684  -63.10296
P     -15.54741   -0.4858  -58.31603
O     -16.12861  -1.54984  -57.44971
O     -15.91634   0.92875  -58.07459
O     -13.95387  -0.61125  -58.29354
C     -13.32866   -1.7337  -58.92978
C     -11.89935   -1.4058  -59.28151
O     -11.85074  -0.26944  -60.16319
C     -11.15393  -0.89417  -58.08249
O     -10.81439  -1.99388  -57.26269
C     -10.0204  -0.05504  -58.67793
O     -8.92659  -0.80245  -59.17429
C     -10.75997   0.57616  -59.83972
N     -11.21179   2.01449  -59.72606
C     -10.29261   3.08648  -59.8103
O     -9.08105   2.84882  -59.91451
N     -10.76418   4.37866  -59.80743
C     -12.0844   4.62861  -59.74998
N     -12.51864   5.89913  -59.75274
C     -13.02971   3.55532  -59.65373
C     -12.55707   2.29448  -59.66237
