40
C_U_16-C_U_16-3ts0.pdb
P     -0.55036  -3.85789  -56.99742
P     -0.55036  -3.85789  -56.99742
O     -1.93087   -3.8583  -56.46654
O     -1.93087   -3.8583  -56.46654
O      0.39572  -2.76061  -56.6614
O      0.39572  -2.76061  -56.6614
O      0.11269  -5.25418  -56.60852
O      0.11269  -5.25418  -56.60852
C       1.1194  -5.37115  -55.62625
C       1.1194  -5.37115  -55.62625
C      1.91232  -6.62943  -55.91171
C      1.91232  -6.62943  -55.91171
O      2.66451  -6.44587  -57.13898
O      2.66451  -6.44587  -57.13898
C      2.97471  -6.89883  -54.86206
C      2.97471  -6.89883  -54.86206
O      2.50154  -7.65373  -53.77905
O      2.50154  -7.65373  -53.77905
C      4.12736   -7.5103  -55.64131
C      4.12736   -7.5103  -55.64131
O      3.99939  -8.89964  -55.90605
O      3.99939  -8.89964  -55.90605
C      4.04563  -6.65907  -56.90668
C      4.04563  -6.65907  -56.90668
N      4.80408  -5.33099  -56.8504
N      4.80408  -5.33099  -56.8504
C      6.22359  -5.33743  -56.84185
C      6.22359  -5.33743  -56.84185
O      6.85428   -6.4074  -56.88036
O      6.85428   -6.4074  -56.88036
N      6.89158  -4.14608  -56.85053
N      6.89158  -4.14608  -56.85053
C      6.21549   -2.9909  -56.85053
C      6.21549   -2.9909  -56.85053
N      6.92963  -1.87349  -56.84937
N      6.92963  -1.87349  -56.84937
C      4.78268  -2.94761  -56.85072
C      4.78268  -2.94761  -56.85072
C      4.13016  -4.12348  -56.85913
C      4.13016  -4.12348  -56.85913
