43
C_U_17-G_U_4-3ts0.pdb
P      1.76042   4.20603  -61.75027
O      2.71039   4.65103  -62.80298
O      0.37556   4.76712  -61.70543
O      1.56881   2.61467  -61.89086
C      2.56865   1.67679  -61.47424
C      1.98611   0.31402  -61.13625
O      1.03853   0.37545  -60.03794
C       1.2267  -0.38501  -62.25404
O      2.11498  -0.94559  -63.21215
C      0.43667  -1.41246  -61.44942
O      1.20914   -2.5219  -61.03831
C      0.01578  -0.58105  -60.2421
N     -1.27901    0.0982  -60.39156
C      -1.5168   1.45032  -60.51116
N     -2.77607   1.77808  -60.62147
C     -3.42484   0.55891  -60.57244
C     -4.81137   0.27224  -60.60787
O     -5.74434   1.08547  -60.68363
N     -5.08627  -1.09273  -60.51477
C      -4.1167  -2.06049  -60.38625
N     -4.54039   -3.3309  -60.32812
N     -2.81345  -1.80325  -60.30619
C     -2.53183  -0.47824  -60.41806
P     -10.31284  -5.92227  -55.67664
O     -10.84229  -6.92554  -54.72494
O     -10.9424   -4.5741  -55.73257
O     -8.75089  -5.64588  -55.42698
C     -7.86386   -6.7478  -55.36291
C     -6.48831  -6.39291  -55.87872
O     -6.56507  -5.51514  -57.01979
C     -5.66914  -5.57379  -54.92046
O      -5.2039   -6.3843  -53.89985
C     -4.59719   -5.0152  -55.84386
O     -3.60075  -5.90448  -56.29541
C     -5.47099  -4.61386  -57.01094
N     -5.94764  -3.17544  -56.98711
C     -5.02093  -2.13256  -57.15763
O     -3.81451  -2.40865  -57.2766
N     -5.48589  -0.83639  -57.19317
C     -6.79662  -0.57572  -57.0813
N     -7.19762   0.69011  -57.14715
C     -7.75247  -1.62642  -56.90528
C     -7.28918  -2.88776  -56.86608
