46
G_U_7-G_U_9-3ts0.pdb
P     -22.18957  18.94258   12.2686
O     -21.9292  18.09123  11.07201
O     -22.58518  20.36379  12.09076
O     -23.30153  18.23759  13.17869
C     -23.13716  16.96839  13.82269
C     -23.76405  16.97241    15.206
O     -23.04542   17.8976  16.05244
C     -25.19041  17.47259  15.18588
O     -26.04718  16.40401  15.40592
C     -25.28903  18.61278  16.19868
O     -26.32869  18.52279  17.16137
C     -23.94345  18.59004  16.88785
N     -23.39082  19.91068  17.18987
C     -23.28488  21.01349  16.36833
N     -22.68715  22.03571  16.92528
C     -22.40021  21.59194  18.21126
C     -21.75736  22.24548  19.28991
O     -21.30979  23.39311  19.33381
N     -21.63687  21.41631  20.40522
C     -22.10992  20.11987  20.49769
N     -21.9037  19.44999  21.64025
N     -22.70904  19.50013  19.49628
C     -22.82797   20.2887  18.38791
P     -30.40652  16.53711  19.42663
O     -31.35561  16.80709  18.32147
O     -29.23018  17.41622  19.66982
O     -31.25803  16.37149   20.7459
C     -30.7167  16.09717   22.0092
C     -31.80103  16.28777  23.04628
O     -32.05923  17.68639  23.32433
C     -33.16377  15.70768  22.71974
O     -33.59177   15.2225  23.96207
C     -33.97721  16.91858  22.23142
O     -35.37898  16.83294   22.4049
C     -33.42655  18.00842  23.12937
N     -33.48089   19.3954  22.67991
C     -33.76861  20.46802  23.49031
N     -33.61537  21.63212  22.92645
C     -33.11925  21.31907  21.66964
C     -32.74811  22.16307  20.58496
O     -32.73367  23.38829  20.52075
N     -32.34572  21.45885  19.45603
C      -32.282  20.08974   19.3908
N     -31.81326    19.592  18.24618
N     -32.62929  19.28355  20.39126
C     -33.00973  19.94935   21.5127
