43
G_U_4-C_U_18-3ts0.pdb
P     -43.57416  -3.65338  -2.69119
O     -44.55833  -4.44328  -3.47614
O     -43.67849  -2.16294  -2.64218
O     -43.65638  -4.13483  -1.15811
C     -43.10934  -5.38084  -0.70971
C     -42.76072  -5.36668   0.76982
O     -41.75472   -4.3702   1.09065
C     -43.90734  -5.06952   1.72466
O     -44.75568  -6.19933   1.88309
C     -43.12854  -4.68477   2.97872
O     -42.59906  -5.79369   3.67623
C     -42.00356  -3.84598   2.38134
N     -42.29877  -2.40926   2.28716
C     -42.50224  -1.65968   1.14881
N     -42.73887  -0.39309   1.36117
C     -42.69035  -0.28967   2.73835
C     -42.83493   0.85241   3.56337
O     -43.03106   2.02141   3.19938
N     -42.70263   0.56137   4.92174
C     -42.44351  -0.69796   5.41174
N     -42.3636  -0.81903   6.74432
N     -42.26052  -1.77169   4.64711
C     -42.40903  -1.50475   3.32266
P     -34.41303  -0.40545   9.28637
O     -33.46736  -0.76072   10.3818
O     -34.40798   0.97241   8.74155
O     -34.21889   -1.4351     8.079
C     -34.62887  -2.79877   8.24607
C     -34.88262   -3.4365   6.90328
O     -35.90514  -2.71436   6.19335
C     -33.70002  -3.26466   5.99388
O     -32.70596  -4.19578   6.37011
C     -34.29385  -3.36536   4.58646
O     -34.57281  -4.68285    4.1531
C     -35.59844  -2.62894   4.81201
N     -35.73067  -1.20534   4.32036
C     -35.87395  -0.90917   2.94453
O     -35.82607  -1.82531   2.11169
N     -36.0969   0.39142   2.55613
C     -36.20312   1.37306    3.4693
N     -36.42498   2.63366   3.06377
C     -36.05035   1.09322   4.86686
C     -35.83734  -0.18415   5.23581
