46
G_U_4-G_U_4-3ts0.pdb
P     -0.66851   8.35081  57.75079
P     -0.66851   8.35081  57.75079
O     -1.67254   8.09982  58.81737
O     -1.67254   8.09982  58.81737
O     -0.07776   9.71385  57.58403
O     -0.07776   9.71385  57.58403
O      0.58447   7.37378  58.00451
O      0.58447   7.37378  58.00451
C      0.53928   5.97031  57.71973
C      0.53928   5.97031  57.71973
C      1.91665   5.38323  57.45714
C      1.91665   5.38323  57.45714
O      2.56358   5.98613  56.30565
O      2.56358   5.98613  56.30565
C      2.93127    5.5281  58.58157
C      2.93127    5.5281  58.58157
O      2.67952    4.6006  59.62925
O      2.67952    4.6006  59.62925
C      4.22738   5.27896  57.81655
C      4.22738   5.27896  57.81655
O      4.46438   3.91415  57.53785
O      4.46438   3.91415  57.53785
C      3.96015   6.04648  56.52601
C      3.96015   6.04648  56.52601
N      4.40087   7.44843  56.54847
N      4.40087   7.44843  56.54847
C      3.61749   8.58218  56.54821
C      3.61749   8.58218  56.54821
N      4.28067   9.70707  56.56124
N      4.28067   9.70707  56.56124
C      5.59982   9.29548  56.57127
C      5.59982   9.29548  56.57127
C       6.7866  10.06816   56.5507
C       6.7866  10.06816   56.5507
O      6.87699  11.30414  56.50975
O      6.87699  11.30414  56.50975
N      7.94312   9.28724   56.5494
N      7.94312   9.28724   56.5494
C      7.93615   7.91134    56.552
C      7.93615   7.91134    56.552
N      9.13144   7.30488  56.56969
N      9.13144   7.30488  56.56969
N      6.82994   7.17197  56.52575
N      6.82994   7.17197  56.52575
C      5.69646   7.92174  56.54925
C      5.69646   7.92174  56.54925
