46
G_U_3-G_U_3-3ts0.pdb
P      -0.4152  11.87161  60.56132
P      -0.4152  11.87161  60.56132
O     -1.39753  11.20832   61.4473
O     -1.39753  11.20832   61.4473
O     -0.18396  13.33308  60.70449
O     -0.18396  13.33308  60.70449
O      1.02848  11.21172  60.76907
O      1.02848  11.21172  60.76907
C      1.22787   9.81814  60.57056
C      1.22787   9.81814  60.57056
C      2.69773   9.47687  60.41201
C      2.69773   9.47687  60.41201
O      3.26075  10.03643   59.1841
O      3.26075  10.03643   59.1841
C       3.6822   9.91525  61.50111
C       3.6822   9.91525  61.50111
O      3.58501   9.23773   62.7603
O      3.58501   9.23773   62.7603
C       4.9636   9.57189  60.75628
C       4.9636   9.57189  60.75628
O      5.21393   8.17016  60.71995
O      5.21393   8.17016  60.71995
C      4.66326   10.1801  59.37472
C      4.66326   10.1801  59.37472
N      5.04756  11.60072  59.32003
N      5.04756  11.60072  59.32003
C      4.24117  12.72424   59.3605
C      4.24117  12.72424   59.3605
N      4.89308  13.86144  59.34241
N      4.89308  13.86144  59.34241
C      6.22564  13.46803  59.34255
C      6.22564  13.46803  59.34255
C      7.41973  14.24322  59.33648
C      7.41973  14.24322  59.33648
O      7.50666   15.4816  59.30128
O      7.50666   15.4816  59.30128
N      8.58161  13.45153  59.34123
N      8.58161  13.45153  59.34123
C      8.58364  12.06863  59.33173
C      8.58364  12.06863  59.33173
N      9.76143   11.4377  59.29255
N      9.76143   11.4377  59.29255
N       7.4768  11.33541  59.31508
N       7.4768  11.33541  59.31508
C      6.33816   12.0875  59.33831
C      6.33816   12.0875  59.33831
