33
G_U_7-HIS_A_75-3ts0.pdb
N      5.27029  -1.11249   8.79649
C      4.15015  -1.40154   7.92728
C       3.9386  -0.19066   7.03786
O      4.02874   0.94794   7.50629
C      2.89183  -1.75423    8.7383
C       1.7442  -2.20974   7.88517
N      0.64257  -1.40414   7.67098
C      1.58611   -3.3585   7.18593
C     -0.15405  -2.09326   6.87327
N      0.37111  -3.27586   6.56181
P      -5.6676  -1.43569  -2.99738
O     -6.65609  -2.09526  -3.89865
O     -6.05754  -0.21819  -2.24002
O     -5.12295  -2.51091  -1.94428
C     -4.37816   -3.6837  -2.29426
C     -3.27643  -3.95286  -1.28415
O     -2.30569  -2.88362  -1.34119
C     -3.79109  -3.95156   0.13719
O     -3.79083  -5.25237    0.6191
C     -2.94263  -2.95754   0.92938
O     -2.36549  -3.43164   2.13682
C     -1.85436  -2.56731  -0.04501
N     -1.47728  -1.15422  -0.00386
C     -2.29094  -0.04053  -0.00609
N     -1.63897   1.09402  -0.01904
C     -0.30312   0.70925   0.00268
C      0.88009   1.48632       0.0
O      0.99094    2.7139  -0.00688
N      2.02634   0.69139  -0.01272
C      2.04574  -0.69138   0.01273
N      3.23499  -1.30913  -0.01495
N      0.94736  -1.42581     0.013
C     -0.18917  -0.66898   0.01334
