34
G_U_7-ARG_A_85-3ts0.pdb
N       3.2307   3.95893  -0.83545
C      4.28878   3.82755   0.16703
C      5.05404   2.53408   0.11808
O      4.48618   1.46276  -0.07808
C      3.72235   4.02108   1.58498
C      3.06036   5.37511   1.81292
C      2.29014   5.38997    3.1006
N        1.169    4.4548   3.12927
C      0.01814   4.66312   2.50059
N     -0.14624   5.74818   1.74456
N     -0.97039    3.7791   2.60089
P      -5.6676  -1.43569  -2.99738
O     -6.65609  -2.09526  -3.89865
O     -6.05754  -0.21819  -2.24002
O     -5.12295  -2.51091  -1.94428
C     -4.37816   -3.6837  -2.29426
C     -3.27643  -3.95286  -1.28415
O     -2.30569  -2.88362  -1.34119
C     -3.79109  -3.95156   0.13719
O     -3.79083  -5.25237    0.6191
C     -2.94263  -2.95754   0.92938
O     -2.36549  -3.43164   2.13682
C     -1.85436  -2.56731  -0.04501
N     -1.47728  -1.15422  -0.00386
C     -2.29094  -0.04053  -0.00609
N     -1.63897   1.09402  -0.01904
C     -0.30312   0.70925   0.00268
C      0.88009   1.48632       0.0
O      0.99094    2.7139  -0.00688
N      2.02634   0.69139  -0.01272
C      2.04574  -0.69138   0.01273
N      3.23499  -1.30913  -0.01495
N      0.94736  -1.42581     0.013
C     -0.18917  -0.66898   0.01334
