32
G_U_9-GLU_A_105-3ts0.pdb
N     -10.01781   4.02983   0.54044
C     -8.61595   4.06261   0.96138
C     -8.34438   5.35663    1.6941
O     -8.70252   6.42383   1.19196
C     -7.73299   3.98491  -0.30075
C     -6.25657   3.81915  -0.04907
C     -5.39521   3.93367   -1.2909
O     -5.84958    3.4779  -2.36487
O     -4.25735   4.45528    -1.188
P      2.40296  -4.29214   1.74378
O      3.14078  -4.05435    0.4812
O      2.62694  -3.44082   2.94414
O       0.8666  -4.35242   1.38471
C     -0.15695  -4.57158   2.31666
C     -1.48283  -4.28484   1.64777
O     -1.73883  -2.86456   1.51586
C     -1.67138  -4.83628   0.24757
O     -3.01434   -5.2342   0.25728
C     -1.40585  -3.62871  -0.66767
O     -2.04486  -3.65664  -1.92992
C     -1.99326  -2.50817   0.16697
N     -1.49796  -1.14838  -0.01835
C     -2.28555  -0.02166  -0.00269
N     -1.62773    1.1021  -0.03393
C     -0.30079   0.70044   0.00564
C      0.89853   1.46739     1e-05
O      1.04426   2.68568   0.00725
N      2.04815   0.68599  -0.01045
C      2.04083  -0.68598   0.01046
N      3.24103  -1.26452   0.05976
N      0.93115  -1.42088   0.01063
C     -0.20659  -0.67898   0.03874
