19
PHE_A_97-LEU_A_38-3ts0.pdb
N     -8.00894  10.28494  -4.81079
C     -7.18713  10.84886  -3.75929
C     -5.76385   10.4646  -3.86249
O     -5.46774   9.44827  -4.47638
C     -7.75846  10.56246  -2.38096
C     -9.05626  11.29295  -2.09084
C     -9.89845  10.52414  -1.14447
C     -8.80116  12.69379  -1.60128
N     -5.77936   6.69089   -5.0278
C     -6.77596   5.71684   -4.6006
C     -8.17467   6.32132  -4.65509
O     -8.31308     7.515  -4.91078
C     -6.42076   5.12315  -3.21485
C     -6.61409   6.09357  -2.07725
C     -5.64311   7.04191  -1.77741
C     -7.77432   6.07494  -1.31441
C     -5.83924   7.96066  -0.75101
C     -7.94892   6.97743    -0.262
C     -6.98887   7.92074       0.0
