22
PHE_A_47-PHE_A_55-3ts0.pdb
N     -33.51522   6.13066   1.73172
C     -33.10422   7.32566   2.44767
C     -31.59192   7.53216   2.23347
O     -30.78835   6.57867   2.30522
C     -33.43245    7.2222     3.939
C     -33.44262    8.5577   4.64823
C     -32.26053   9.13337   5.10441
C     -34.63079   9.23437   4.87949
C     -32.26718  10.37434   5.74836
C     -34.6259  10.48999   5.50562
C     -33.45203  11.04036   5.95415
N     -37.7079   8.53398   0.67454
C     -39.12383   8.23927   0.42698
C     -39.59298   7.03368   1.18264
O     -38.83295   6.09137   1.39923
C     -39.38107   8.02881  -1.08261
C     -39.50703   9.32024   -1.8426
C     -38.38012   9.98835  -2.30138
C     -40.74889   9.88856  -2.07215
C     -38.49343  11.21981  -2.95645
C     -40.85923   11.1197  -2.72619
C     -39.73085  11.78082  -3.15668
