22
PHE_A_73-PHE_A_73-3ts0.pdb
N     19.80215  -28.99299  13.76861
N     19.80215  -28.99299  13.76861
C      19.6631  -27.53504  13.65278
C      19.6631  -27.53504  13.65278
C     20.82781  -26.94889  12.87121
C     20.82781  -26.94889  12.87121
O     21.96764  -27.37094  13.06065
O     21.96764  -27.37094  13.06065
C     19.61021  -26.87524   15.0444
C     19.61021  -26.87524   15.0444
C     19.61822  -25.35838  15.05386
C     19.61822  -25.35838  15.05386
C     20.81719  -24.65093  15.07024
C     20.81719  -24.65093  15.07024
C     18.42935  -24.64124  15.04908
C     18.42935  -24.64124  15.04908
C      20.8208  -23.25197  15.05006
C      20.8208  -23.25197  15.05006
C     18.43648  -23.24579  15.07752
C     18.43648  -23.24579  15.07752
C     19.62959  -22.56041  15.06015
C     19.62959  -22.56041  15.06015
