18
PHE_A_47-VAL_A_74-3ts0.pdb
N     -0.26986   -4.9125  -1.44245
C      0.15929  -3.52533  -1.40894
C      1.63209  -3.45472  -1.85778
O      2.47906  -4.27308   -1.4419
C     -0.01251  -2.92258  -0.01263
C     -0.00872  -1.41043    -0.004
C       1.1874  -0.69904   0.00278
C      -1.1956  -0.69349   0.01664
C      1.19219   0.69905  -0.00277
C     -1.18176   0.70922  -0.01262
C      0.00651   1.39472     1e-05
N     -6.92893   0.82428  -2.68531
C     -6.41161   1.59789  -1.55855
C     -5.13289   2.36121  -1.96121
O     -4.25392   1.80297   -2.6243
C     -6.24428   0.76329  -0.26679
C     -5.22785  -0.36257  -0.42281
C     -5.90037   1.64975   0.91403
