20
PHE_A_95-GLU_A_105-3ts0.pdb
N      5.74067  -3.13003  -1.71317
C      5.31278  -2.60119  -2.99441
C      6.42921  -1.97689  -3.75871
O      7.48231  -1.66272  -3.19435
C      4.19503   -1.5132  -2.77325
C      4.50368   -0.3916  -1.79575
C      4.20371  -0.51766  -0.44784
C      5.10687   0.78247  -2.22366
C      4.49189   0.51767   0.44785
C      5.38902   1.81688  -1.32578
C      5.08104   1.67643       0.0
N      3.29052   7.20418  -6.62618
C      2.28597   6.26535   -7.1291
C      2.81204   4.85407  -6.99998
O      3.94247    4.5887  -7.41353
C      2.02614   6.58921  -8.61443
C      0.88224   5.84189  -9.24975
C      0.76622   6.03551  -10.7485
O      1.04903   7.16082  -11.21893
O      0.36954   5.07275  -11.45072
