25
PHE_A_47-TRP_A_46-3ts0.pdb
N     27.48227  -6.14175   4.00221
C     26.25671   -5.3687   3.99453
C     26.59105  -3.96801   3.51128
O     27.74968  -3.53075   3.61177
C     25.59358  -5.33113   5.38011
C     26.35434  -4.57758   6.42656
C     27.26916  -5.08487    7.2982
C     26.21687  -3.18755   6.75389
N     27.74019  -4.08971   8.12717
C     27.11445  -2.91453   7.81203
C     25.44447   -2.1324   6.23408
C     27.26172  -1.63434   8.35732
C     25.60246  -0.86536   6.76833
C     26.51059  -0.62383   7.80893
N     25.57536  -3.26663   2.99872
C     25.64099  -1.88754   2.54776
C     24.24734  -1.24965   2.71025
O     23.20971  -1.85912   2.37577
C     26.11307  -1.79845   1.09458
C     26.61804  -0.42659   0.70768
C     25.73468   0.57731   0.32208
C     27.97457  -0.13859   0.70848
C     26.19931   1.85002  -0.02295
C     28.43041   1.14793   0.38337
C     27.54618   2.12426     1e-05
