18
PHE_A_55-VAL_A_74-3ts0.pdb
N      1.49368  -3.42096   1.98352
C      0.09845  -3.44531    1.5299
C     -0.49568  -4.81907   1.59579
O       0.1975  -5.81501   1.39552
C     -0.01451  -2.90792   0.08498
C     -0.00779  -1.40582    0.0148
C       1.1872  -0.69971    0.0026
C      -1.1947  -0.69255  -0.00527
C      1.19338   0.69972  -0.00259
C     -1.18569   0.70585  -0.00951
C      0.00763   1.39255       0.0
N     -0.87677    -1.009   5.20603
C     -0.62928  -1.56725   6.53373
C      0.69308  -1.02652   7.11586
O      1.70429  -0.95656   6.41125
C     -0.73169  -3.11018   6.57923
C      0.31348  -3.79396   5.70453
C      -0.6671  -3.61878   8.00597
