18
PHE_A_53-VAL_A_74-3ts0.pdb
N      1.36087  -3.47616  -2.01335
C      0.03657  -3.55614  -1.41186
C      -1.0315  -3.00295  -2.31486
O     -0.73697   -2.3281  -3.30659
C     -0.00653   -2.9098  -0.01565
C     -0.00312  -1.40376  -0.01911
C      1.19405  -0.69612   0.00143
C      -1.1953   -0.6902   0.00442
C      1.19688   0.69613  -0.00142
C     -1.19366   0.70491   0.01471
C      0.00119   1.38907     1e-05
N     -4.66019  -5.85194   1.33819
C     -3.80509  -6.98005   0.97505
C     -2.33902  -6.52607   0.81864
O     -2.06799  -5.48415   0.21461
C     -4.32991  -7.78147  -0.23964
C     -4.38097  -6.94775  -1.51531
C     -3.52267   -9.0479  -0.44688
