33
PHE_A_55-A_U_10-3ts0.pdb
N      1.49368  -3.42096   1.98352
C      0.09845  -3.44531    1.5299
C     -0.49568  -4.81907   1.59579
O       0.1975  -5.81501   1.39552
C     -0.01451  -2.90792   0.08498
C     -0.00779  -1.40582    0.0148
C       1.1872  -0.69971    0.0026
C      -1.1947  -0.69255  -0.00527
C      1.19338   0.69972  -0.00259
C     -1.18569   0.70585  -0.00951
C      0.00763   1.39255       0.0
P      4.86244   7.58041   3.70786
O      6.33481   7.40232   3.67209
O      4.18446   8.90304    3.8171
O        4.211   6.89506   2.41633
C      4.50277   5.58787   1.92401
C      3.35082   5.07179   1.07673
O      2.24913   4.69347   1.93393
C      2.75913   6.00809   0.02865
O      2.47409   5.22459  -1.10848
C      1.47554   6.53706   0.67005
O      0.47061   6.83467   -0.2752
C      1.06662   5.37144   1.56118
N      0.38305   5.73996   2.79046
C      0.92887   6.33313   3.90171
N      0.06445   6.54703   4.87173
C     -1.09885   5.98187   4.38461
C     -2.38827   5.83907   4.93479
N      -2.7148    6.2616   6.16476
N     -3.33859   5.24983     4.182
C     -3.03735   4.84472   2.94944
N     -1.86137   4.89109   2.33851
C     -0.92428    5.4735   3.11056
