18
PHE_A_47-VAL_A_49-3ts0.pdb
N     -0.26986   -4.9125  -1.44245
C      0.15929  -3.52533  -1.40894
C      1.63209  -3.45472  -1.85778
O      2.47906  -4.27308   -1.4419
C     -0.01251  -2.92258  -0.01263
C     -0.00872  -1.41043    -0.004
C       1.1874  -0.69904   0.00278
C      -1.1956  -0.69349   0.01664
C      1.19219   0.69905  -0.00277
C     -1.18176   0.70922  -0.01262
C      0.00651   1.39472     1e-05
N       4.5763  -0.99155  -1.58727
C      4.94483   0.19422  -0.81888
C      5.58878   1.33557  -1.61834
O      5.19655   2.48824  -1.41738
C      5.50725  -0.05668    0.5905
C      5.82981  -1.51876   0.82089
C      6.67548   0.84703   0.91392
