17
PHE_A_163-CYS_A_161-3ts0.pdb
N     -2.62738  -9.40898   2.29543
C     -1.99955  -8.44948   1.36346
C     -0.73127  -7.86723   1.90018
O     -0.66313  -7.48546   3.06533
C     -2.97813  -7.35061   0.97094
S     -2.33303  -6.16088   -0.2425
N      0.48766  -5.02194    1.1721
C      0.33401  -3.58235   1.34527
C     -0.68978  -3.18964   2.42226
O     -0.42047  -2.29017   3.19966
C     -0.01137  -2.91159   0.01148
C      -0.0076  -1.41027   0.02627
C      1.19331  -0.70087   0.00059
C     -1.20122  -0.69373  -0.00928
C      1.19942   0.70088  -0.00058
C     -1.19257   0.70786  -0.01697
C       0.0087   1.39616     1e-05
