20
PHE_A_163-LYS_A_88-3ts0.pdb
N      13.6693   4.08419  -6.60559
C     12.59157   4.80544  -5.91566
C     13.22371    5.5163  -4.71789
O     14.22163   5.05245  -4.16867
C     11.42002   3.89847  -5.48914
C     11.60964   3.09937   -4.1935
C     10.48674   2.11994  -4.03029
C     10.40755   1.56971  -2.64141
N      9.07464   0.95324  -2.41071
N      9.92825   -3.7889   1.45398
C      9.54816  -2.53753   0.80927
C     10.73974  -1.71338   0.29626
O     10.67273  -1.19079  -0.80298
C      8.67734  -1.69108   1.74381
C      8.06843  -0.46717   1.12292
C      6.95824  -0.57119   0.28463
C      8.55114   0.80287   1.42854
C       6.3787    0.5712  -0.28462
C      7.96593   1.94417   0.86325
C      6.89059   1.81947       0.0
