15
PHE_A_73-GLY_A_54-3ts0.pdb
N     -2.33485   0.98754  -4.88527
C     -3.14552  -0.10644  -5.38487
C     -2.62614  -1.41883  -4.85499
O     -1.89905   -1.4463  -3.84995
N      0.17689  -5.04153  -1.29154
C      0.03784  -3.58358  -1.40737
C      1.20255  -2.99743  -2.18893
O      2.34237  -3.41948   -1.9995
C     -0.01506  -2.92378  -0.01574
C     -0.00705  -1.40692  -0.00629
C      1.19193  -0.69948    0.0101
C     -1.19592  -0.68978  -0.01107
C      1.19553   0.69949  -0.01009
C     -1.18878   0.70567   0.01738
C      0.00432   1.39105       0.0
