22
PHE_A_55-PHE_A_55-3ts0.pdb
N     -31.86433    5.6043   8.96611
N     -31.86433    5.6043   8.96611
C     -33.25956   5.57995   8.51249
C     -33.25956   5.57995   8.51249
C     -33.85369   4.20619   8.57837
C     -33.85369   4.20619   8.57837
O     -33.16051   3.21025    8.3781
O     -33.16051   3.21025    8.3781
C     -33.37252   6.11734   7.06757
C     -33.37252   6.11734   7.06757
C     -33.3658   7.61944   6.99738
C     -33.3658   7.61944   6.99738
C     -32.1708   8.32555   6.98519
C     -32.1708   8.32555   6.98519
C     -34.55271   8.33271   6.97731
C     -34.55271   8.33271   6.97731
C     -32.16463   9.72498   6.97999
C     -32.16463   9.72498   6.97999
C     -34.5437   9.73111   6.97307
C     -34.5437   9.73111   6.97307
C     -33.35038  10.41781   6.98259
C     -33.35038  10.41781   6.98259
