21
PHE_A_116-HIS_A_80-3ts0.pdb
N     12.88406  19.31093  -6.85841
C     12.62736  18.86398  -5.49303
C     11.46285  17.89795  -5.53387
O     10.31922  18.33162  -5.66326
C     12.34476  20.06238  -4.59024
C     12.17601  19.72972  -3.14438
N       13.175   19.0948  -2.42371
C     11.16021  20.03789  -2.30464
C     12.71449  18.99701  -1.18756
N     11.51221  19.55363  -1.06245
N      6.96321  19.59709   -2.6503
C      7.46339  18.80545  -3.77141
C      6.69935   19.0831   -5.0381
O      5.51746  19.45991  -4.99363
C      7.38696  17.31438  -3.45463
C      8.13807  16.83126  -2.23074
C      9.52641  16.86958  -2.18353
C      7.46038  16.26565  -1.15712
C     10.21398  16.39809  -1.06267
C      8.15509   15.8055  -0.03066
C      9.52322  15.85934       0.0
