19
PHE_A_55-LEU_A_56-3ts0.pdb
N     -10.25606   9.74438    3.6545
C     -11.68409  10.07633   3.59498
C     -12.51492   9.16199   4.44248
O     -12.19858   7.98319   4.59371
C     -12.19494  10.02716   2.13691
C     -11.86384  11.26909   1.35638
C     -10.62894  11.41311   0.73911
C     -12.77171  12.31085    1.2646
C     -10.29827  12.59295   0.06302
C     -12.43838  13.48912   0.58918
C     -11.20148  13.62554     1e-05
N     -13.59979   9.70906   4.96842
C     -14.58815   9.01875    5.7798
C     -15.78877   8.84944   4.88574
O     -16.06059   9.70773   4.02651
C     -14.99289   9.89643   6.99673
C     -13.87135  10.46024   7.87614
C     -14.41343  11.25037   8.96973
C      -13.007   9.35801   8.45741
