22
PHE_A_116-ARG_A_108-3ts0.pdb
N     23.16705  -2.62631   5.49328
C     21.91765  -2.37897   4.80417
C     21.56332  -3.67009   4.10643
O     22.43038  -4.29444   3.50464
C     22.06833  -1.26324   3.77718
C     20.73595  -0.58859   3.45512
C     20.90933   0.49282   2.41944
N     19.64669   0.82088   1.75608
C     19.43605   0.70776    0.4471
N     20.40469   0.25642  -0.35479
N       18.262    1.0468  -0.07488
N     12.76727  -3.50826  -2.14954
C      12.4141  -3.72862  -0.74938
C      12.3577  -5.19385  -0.40989
O     12.08575  -6.03462  -1.28165
C     11.06852  -3.08522  -0.42543
C      10.9443  -1.59365  -0.66053
C     11.67137  -0.68747   0.10197
C     10.04179  -1.09262  -1.59127
C     11.53242   0.68748  -0.10196
C      9.91581   0.28725  -1.79949
C     10.64726   1.16403  -1.04327
