18
PHE_A_73-VAL_A_74-3ts0.pdb
N      0.17689  -5.04153  -1.29154
C      0.03784  -3.58358  -1.40737
C      1.20255  -2.99743  -2.18893
O      2.34237  -3.41948   -1.9995
C     -0.01506  -2.92378  -0.01574
C     -0.00705  -1.40692  -0.00629
C      1.19193  -0.69948    0.0101
C     -1.19592  -0.68978  -0.01107
C      1.19553   0.69949  -0.01009
C     -1.18878   0.70567   0.01738
C      0.00432   1.39105       0.0
N      0.91924  -1.99761   -3.0226
C      1.92064  -1.27145   -3.8008
C      1.67731   0.24981  -3.72022
O      0.53614   0.70738  -3.83097
C      2.06628  -1.79141  -5.25049
C      0.78917  -1.62172  -6.06612
C       3.2481  -1.14424  -5.94541
