18
PHE_A_55-VAL_A_72-3ts0.pdb
N      1.49368  -3.42096   1.98352
C      0.09845  -3.44531    1.5299
C     -0.49568  -4.81907   1.59579
O       0.1975  -5.81501   1.39552
C     -0.01451  -2.90792   0.08498
C     -0.00779  -1.40582    0.0148
C       1.1872  -0.69971    0.0026
C      -1.1947  -0.69255  -0.00527
C      1.19338   0.69972  -0.00259
C     -1.18569   0.70585  -0.00951
C      0.00763   1.39255       0.0
N     -4.82926  -2.38137   0.49106
C     -5.07915  -1.71089   1.76876
C     -3.71478  -1.49874    2.4221
O     -2.97309  -2.46448   2.59414
C     -6.07735   -2.4876   2.69746
C     -6.26967  -1.77703   4.04175
C     -7.42433  -2.71489   2.01518
