34
TRP_A_46-U_U_13-3ts0.pdb
N     -3.46438  -2.50436   2.12342
C     -2.39685   -3.1534   1.38938
C     -1.13325  -3.06593   2.22777
O     -1.01525  -2.18141    3.0923
C     -2.18579  -2.52107   0.00497
C     -1.65765  -1.12021   0.02195
C     -2.38668   0.02978   0.01565
C     -0.28005  -0.72153  -0.01711
N     -1.54949   1.12454   0.01225
C     -0.25149   0.69228   -0.0035
C      0.94049  -1.42172  -0.02921
C      0.94553   1.41689     1e-05
C      2.12199  -0.70092  -0.01327
C      2.11739   0.70093   0.01328
P      2.56383   -3.3345  -4.65968
O        3.602  -2.54835  -3.92684
O       2.6615  -3.54255  -6.13788
O      2.46665  -4.77076  -4.00086
C      2.34737  -4.94796  -2.61912
C       1.7185  -6.30077  -2.41652
O      0.35449  -6.15322  -2.80676
C      2.26894  -7.47164   -3.2306
O      2.56986  -8.59024  -2.38274
C       1.1809  -7.77379   -4.2623
O      1.16901  -9.15629  -4.61095
C     -0.05125  -7.31487  -3.47799
N     -1.34721  -6.95916  -4.16692
C     -2.44771  -7.79969  -3.95687
O     -2.41122  -8.85659  -3.33904
N     -3.62989  -7.35418  -4.51952
C     -3.83418  -6.16742  -5.22556
O     -4.95428  -5.95149  -5.69682
C     -2.66288  -5.30453  -5.33585
C     -1.49423  -5.71607  -4.80459
