23
TYR_A_140-ARG_A_138-3ts0.pdb
N     16.23335   1.28729  -6.73167
C     17.48981    0.5293  -6.61622
C     17.44925  -0.52813  -5.49831
O     16.84193  -0.28413  -4.46416
C      18.6543   1.49911  -6.31607
C     18.62547   2.79688  -7.11477
C     19.84865   3.66776  -6.87994
N     19.93111   4.25084  -5.53851
C     19.26924   5.33418  -5.13313
N     18.43118    5.9595  -5.95793
N     19.42014   5.78701  -3.89298
N     18.67854  -2.43979  -2.20245
C     19.30896   -1.8505  -1.00841
C     20.75497  -2.23805  -0.83017
O        21.51  -1.44905  -0.26404
C     18.53271  -2.16513   0.28712
C     17.14354  -1.56473   0.40449
C     16.87287  -0.28234  -0.06572
C     16.12072    -2.246   1.06464
C     15.60447   0.28235   0.06573
C     14.85298  -1.68983   1.20486
C     14.59485  -0.42995   0.69235
O     13.34988   0.13285   0.85278
