42
U_U_5-A_U_6-3ts0.pdb
P       0.8587  47.63253  19.68654
O      0.12722   47.9698  20.94192
O      0.77161  48.56689   18.5329
O      2.41526  47.45846  20.03788
C      2.80063  46.54386  21.09936
C      4.27934  46.21737  21.06482
O      4.58564  45.63314  19.78676
C      5.19102  47.43214  21.13989
O      5.35683  47.90348  22.48427
C      6.45237  46.95375  20.40888
O        7.423  46.18287  21.10689
C      5.84891  46.07727  19.33869
N      5.81335  46.72275  17.99459
C      7.01782  46.87147  17.30787
O      8.11665  46.52172  17.73336
N      6.89236  47.47388  16.07519
C      5.73936  47.95246  15.48108
O      5.83775  48.45718  14.37002
C      4.52407  47.77294  16.24119
C      4.60961    47.176  17.44667
P      5.63566  49.45957  22.74803
O      5.49216  49.68973  24.21157
O      4.88833  50.33688  21.79206
O      7.16051  49.63729  22.31886
C      8.20886  48.87736  22.90203
C      9.48438  49.06809  22.10804
O      9.24925  48.89546  20.68328
C      10.1338   50.4291  22.27501
O     11.52248  50.21536  22.32991
C      9.76174  51.17547  20.99067
O     10.75697   52.1292  20.66312
C      9.64422  50.04948  19.95336
N      8.66043  50.28666   18.8832
C      7.28474  50.22397  18.96793
N      6.62427   50.4769  17.84923
C      7.64915  50.68785  16.94795
C      7.62622  51.03345  15.57635
N      6.49196  51.20349  14.89037
N      8.81984  51.20138  14.95369
C      9.96513  51.02554   15.6566
N      10.1133  50.72359  16.95604
C      8.90998  50.54352  17.55015
