40
U_U_8-U_U_8-3ts0.pdb
P     -16.57954  -44.76947  17.31271
P     -16.57954  -44.76947  17.31271
O     -17.07561  -44.28483  15.99021
O     -17.07561  -44.28483  15.99021
O     -17.00017  -46.11628  17.79924
O     -17.00017  -46.11628  17.79924
O      -14.967  -44.75196   17.2988
O      -14.967  -44.75196   17.2988
C     -14.18699  -44.23314  18.39219
C     -14.18699  -44.23314  18.39219
C     -13.20634  -45.30566  18.80755
C     -13.20634  -45.30566  18.80755
O     -11.85571  -44.89849  18.50332
O     -11.85571  -44.89849  18.50332
C     -13.23469  -45.69072  20.27098
C     -13.23469  -45.69072  20.27098
O     -12.93551  -47.10127  20.35154
O     -12.93551  -47.10127  20.35154
C     -12.1404  -44.80895  20.86175
C     -12.1404  -44.80895  20.86175
O     -11.4818  -45.35923  21.97961
O     -11.4818  -45.35923  21.97961
C     -11.15399  -44.67762  19.70175
C     -11.15399  -44.67762  19.70175
N     -10.41003  -43.36844  19.62918
N     -10.41003  -43.36844  19.62918
C     -9.01779  -43.40789  19.64003
C     -9.01779  -43.40789  19.64003
O     -8.35533  -44.44421  19.66828
O     -8.35533  -44.44421  19.66828
N      -8.4105  -42.17434  19.63014
N      -8.4105  -42.17434  19.63014
C     -9.04408  -40.94568  19.63014
C     -9.04408  -40.94568  19.63014
O     -8.35459  -39.92846   19.6227
O     -8.35459  -39.92846   19.6227
C     -10.49211  -40.98323  19.63377
C     -10.49211  -40.98323  19.63377
C     -11.11227  -42.16647  19.61756
C     -11.11227  -42.16647  19.61756
