31
U_U_13-PHE_A_47-3ts0.pdb
N     -2.69362  -3.05537  -6.29912
C     -3.62792  -4.15115  -6.48861
C     -4.12516  -4.61863  -5.10666
O     -3.33898  -4.76337  -4.14698
C     -2.98141  -5.30861  -7.25334
C     -3.98352  -6.26544  -7.85908
C     -4.54828  -7.28471  -7.09819
C     -4.35149  -6.16453  -9.19232
C     -5.48494  -8.16164  -7.65352
C     -5.30951  -7.03405  -9.73525
C     -5.85205  -8.03693  -8.97241
P     -5.99498  -0.81055  -0.30539
O      -7.2078  -1.25958  -1.05395
O     -6.11156  -0.24603   1.07505
O     -4.98256   -2.0246  -0.21931
C     -4.62827  -2.77781  -1.34268
C     -3.29553  -3.40501   -1.0312
O      -2.3472  -2.34099  -1.08711
C     -3.11887  -4.05991   0.33867
O     -2.59144  -5.38866   0.20858
C     -2.19033  -3.11595   1.10438
O     -1.38959  -3.82883   2.04439
C     -1.40296  -2.52375   -0.0675
N     -0.66667  -1.21047   0.05003
C      0.73286  -1.24298    0.0054
O      1.40711  -2.26516  -0.01935
N      1.33914       0.0       0.0
C      0.71002   1.24613     1e-05
O      1.41512   2.25839   0.03842
C     -0.74793   1.20231  -0.03428
C     -1.36738   0.00504  -0.02114
