45
A_A_20-G_A_4-1l2x.pdb
P     27.48059  -16.91309   3.08397
O      26.0904  -16.49221   2.82305
O     28.33845  -16.18551   4.05743
O      27.4177  -18.44395   3.57207
C     26.81409  -19.41251   2.69717
C     26.99135  -20.79299   3.26179
O      28.4021  -21.12161   3.27975
C     26.57356  -21.01284   4.71278
O     25.17195  -21.16523   4.81366
C     27.34991  -22.26881    5.0563
O     26.84851  -23.3871   4.33485
C     28.68402  -21.94033   4.40673
N     29.60382  -21.20953   5.27198
C     30.00325  -19.90376   5.20655
N     30.85703  -19.60364   6.14758
C     31.03551  -20.77089   6.87584
C     31.83629  -21.06067   8.01074
O     32.59949  -20.32087   8.65864
N      31.6978  -22.38538     8.409
C     30.88731  -23.31312   7.80323
N     30.88689  -24.54658   8.33746
N     30.14066  -23.06647   6.73951
C     30.26575  -21.78423   6.33604
P     29.49754  -33.87309  10.59008
O     30.69579  -34.52889  10.00815
O     29.00679  -34.32988  11.92976
O     29.87162  -32.32547  10.72909
C     28.91091  -31.43564    11.306
C     29.41326  -30.03044  11.07688
O     29.32206  -29.71684   9.67725
C     28.61426  -28.93459  11.77127
O     29.06678  -28.82346  13.10996
C      28.8937  -27.73428  10.89456
O     30.05526  -27.0824  11.31824
C     29.11461  -28.32793   9.50326
N     27.98119  -28.16321   8.58498
C     26.74442  -28.75296   8.60038
N     25.94361  -28.36395    7.6335
C       26.709  -27.43598   6.93269
C     26.43943  -26.62348   5.81796
N      25.2963  -26.64029   5.13808
N     27.41649  -25.79593   5.38504
C     28.56613  -25.79574   6.06012
N     28.95118  -26.4866   7.11871
C     27.94971  -27.29024   7.52443
