41
A_A_25-C_A_14-1l2x.pdb
O     -28.8034   4.78734  -13.18053
O     -23.87189   2.06492  -12.44623
O     -27.98258   7.11653  -12.53624
O     -26.44826   1.75354  -12.51179
C     -27.09398   3.28583  -9.68862
O     -26.22295   3.69313  -8.60611
C     -28.49287   3.61683  -9.19913
O     -29.46689   2.79107  -9.80619
C     -28.37969   3.35526  -7.70973
O     -28.40984   1.95122  -7.49336
C     -26.96627   3.78751  -7.39822
N     -26.81659   5.17476  -6.91265
C     -27.16268    5.4136  -5.58045
O     -27.62979   4.46382  -4.93161
N     -27.00321   6.65762  -5.07616
C     -26.49537   7.62006  -5.84356
N     -26.35723   8.83846  -5.32034
C     -26.12597   7.39811  -7.19558
C     -26.28438   6.16322  -7.68271
P     -30.39756  -4.80832   2.23664
O     -30.20697  -6.28626   2.30148
O     -30.45616  -4.04449   3.51722
O     -29.21891  -4.19794    1.3628
C     -28.39582  -5.07197   0.57927
C     -28.93477  -5.13825  -0.82429
O     -29.7425   -3.9779  -1.12492
C     -27.87548  -5.12299  -1.92105
O     -27.34811  -6.42266  -2.11298
C     -28.64348  -4.60584  -3.11363
O     -29.46617  -5.59232  -3.68921
C     -29.54679  -3.57225  -2.46922
N     -28.97996  -2.22308  -2.41975
C     -28.43752  -1.54909  -1.35836
N     -28.03716  -0.33402  -1.65481
C     -28.32327  -0.20126  -3.00374
C     -28.1386   0.85162   -3.9106
N     -27.58221   2.01954  -3.59495
N     -28.55224   0.65411  -5.18487
C     -29.09823  -0.52643  -5.50866
N     -29.31958  -1.59619  -4.74306
C     -28.91399   -1.3549  -3.48491
