42
A_A_25-C_A_15-1l2x.pdb
P     -28.87914   8.06999  -4.70424
O     -29.71817   7.55406   -5.8216
O     -28.93798   9.49602  -4.27562
O     -29.27045   7.20757  -3.40947
C     -29.40281   5.78132  -3.49209
C     -29.80242   5.23653  -2.14371
O     -28.7322    5.3612  -1.18071
C     -30.95524    5.9764  -1.47533
O     -32.21131   5.60284  -1.99934
C     -30.78511   5.54463  -0.03384
O     -31.06004   4.15782   0.09253
C     -29.28589    5.6771   0.11038
N     -28.76155   6.99803     0.509
C     -28.67796   7.25583   1.88377
O     -29.12198    6.4141   2.67617
N     -28.15155   8.41948   2.31777
C     -27.66774   9.29668    1.4342
N     -27.17964  10.44778   1.89886
C     -27.7453   9.08113   0.02925
C     -28.2632   7.91539  -0.37166
P     -27.55011  -5.34949   0.83488
O     -27.40192  -6.61218   0.05483
O     -27.4814  -5.42401   2.32366
O     -26.42667  -4.33603    0.3489
C     -25.69733  -4.61467   -0.8535
C     -26.34909  -3.90223  -2.00781
O     -27.14113  -2.78448  -1.54677
C     -25.38136  -3.26284  -2.99771
O     -24.91262  -4.22882  -3.92035
C     -26.22586  -2.18576  -3.63506
O     -27.12301  -2.70302  -4.58837
C     -27.04124   -1.6987  -2.45292
N     -26.42974  -0.59277  -1.71333
C     -25.78269  -0.60977  -0.50664
N     -25.36908   0.57311  -0.11387
C     -25.75825   1.42557  -1.13414
C     -25.61369   2.80763  -1.31875
N     -24.99696   3.61507  -0.45797
N     -26.13439   3.34151   -2.4491
C     -26.74181   2.52826  -3.32449
N     -26.9348   1.20973  -3.26318
C     -26.42202   0.72107  -2.12128
