40
A_A_21-A_A_21-1l2x.pdb
P     12.51709  -0.86001  -24.24493
P     12.51709  -0.86001  -24.24493
O     11.34208  -1.56895  -23.68397
O     11.34208  -1.56895  -23.68397
O     12.85803   0.49527  -23.72347
O     12.85803   0.49527  -23.72347
O     13.80416  -1.76583  -23.94299
O     13.80416  -1.76583  -23.94299
C      13.8163  -3.17207  -24.16459
C      13.8163  -3.17207  -24.16459
C     15.23912  -3.66341  -24.14992
C     15.23912  -3.66341  -24.14992
O     16.00929  -2.99633  -25.19342
O     16.00929  -2.99633  -25.19342
C     17.45793  -3.56135  -23.38498
C     17.45793  -3.56135  -23.38498
O     17.79666   -4.9126  -23.6291
O     17.79666   -4.9126  -23.6291
C     17.36532  -2.88896  -24.75291
C     17.36532  -2.88896  -24.75291
N     17.72836  -1.47133  -24.74112
N     17.72836  -1.47133  -24.74112
C     16.95179  -0.34372  -24.76121
C     16.95179  -0.34372  -24.76121
N     17.63935   0.77394  -24.74619
N     17.63935   0.77394  -24.74619
C      18.9624   0.35135  -24.75031
C      18.9624   0.35135  -24.75031
C     20.18267   1.04213  -24.74843
C     20.18267   1.04213  -24.74843
N     20.27312   2.37068  -24.75446
N     20.27312   2.37068  -24.75446
N     21.32183    0.3163  -24.75258
N     21.32183    0.3163  -24.75258
C     21.22829  -1.02038  -24.74428
C     21.22829  -1.02038  -24.74428
N     20.14293  -1.79067  -24.73904
N     20.14293  -1.79067  -24.73904
C     19.03343  -1.02596  -24.75273
C     19.03343  -1.02596  -24.75273
