39
C_A_11-C_A_14-1l2x.pdb
P     14.83915   12.9121  39.00431
O     13.81792   13.7999  39.62365
O     16.22008  12.90487  39.56504
O     14.34974  11.40028  39.11694
C     13.06042  11.01405  38.63637
C      12.9235   9.52234  38.78144
O     13.87709   8.84311  37.92357
C     13.22475   8.94983  40.16232
O     12.13485    9.1441  41.03857
C     13.47837   7.49336   39.8534
O     12.24905   6.86973  39.48454
C     14.29521   7.64731    38.579
N     15.74628   7.74724  38.82493
C     16.38788   6.54688  39.15486
O     15.68933   5.51767  39.24682
N     17.72091   6.57739  39.33488
C     18.39595   7.72622  39.23157
N     19.71029   7.69814   39.4528
C     17.76081   8.95692  38.88874
C      16.4367   8.91115  38.70937
O     16.87973    3.0132  50.97155
O     17.05414   0.31405  45.97607
O     15.16458   4.78658  50.31782
O     18.38829   0.78172  48.15329
C     19.04816   3.93043  47.53255
O     18.93581   4.70387   46.3137
C     19.68597   4.88042  48.53094
O     20.39776   4.18253  49.53363
C     20.60915   5.69786  47.64829
O     21.75512   4.91468  47.34424
C     19.83249    5.8059  46.35725
N     19.01499   7.02712  46.20574
C     19.69607   8.20019  45.87169
O     20.93376   8.14105  45.79501
N     18.98799   9.33561  45.67989
C     17.66067    9.3103   45.7832
N      16.9906  10.44754  45.59605
C     16.94657   8.12838  46.10998
C     17.65657   7.01058  46.29374
