40
C_A_17-C_A_15-1l2x.pdb
P     -23.1915  -9.48588  26.79014
O     -24.63319  -9.46061  27.16371
O     -22.15018  -8.85117  27.64661
O     -22.78102  -11.03242  26.67609
C     -23.62683  -11.96592  25.98925
C     -23.01493  -13.34254  26.06063
O     -21.80688  -13.42969   25.2724
C     -22.55016  -13.76038  27.45079
O     -23.61658  -14.19118  28.26871
C     -21.59516  -14.88669  27.11514
O     -22.31266  -15.98602  26.57527
C     -20.85485  -14.27174  25.94905
N     -19.67247  -13.44545  26.26196
C     -18.44723   -14.115  26.37996
O     -18.43377  -15.35103  26.30515
N     -17.31753  -13.41299  26.60471
C     -17.36828  -12.07948  26.66333
N     -16.2357  -11.42096  26.91388
C     -18.59289  -11.36071   26.5629
C     -19.69492  -12.08156  26.33096
P     -21.1111  -17.25373  34.19504
O     -22.02371  -18.15809  34.95735
O     -21.18982  -15.79147    34.377
O     -19.60035  -17.68189  34.48674
C     -18.78569  -17.02447  35.44166
C     -17.33836  -17.26385  35.08235
O     -17.00978  -16.59947  33.83669
C     -16.3301  -16.71032  36.08093
O     -16.13764  -17.61309  37.16071
C     -15.09716  -16.51762  35.23222
O     -14.43988  -17.74051   35.0226
C     -15.6877  -16.08421  33.89903
N     -15.75767  -14.62153  33.72143
C     -14.53705  -13.95224  33.55785
O     -13.49019  -14.60705  33.60309
N     -14.55707  -12.61863   33.3727
C     -15.70587  -11.95459  33.31407
N     -15.62946  -10.63485  33.12043
C     -16.95768  -12.61319  33.44835
C     -16.9326  -13.93433  33.64619
