40
C_A_17-A_A_21-1l2x.pdb
P     -15.5712  -17.13993  26.01488
O     -16.13931  -18.38959  26.60435
O     -16.04382  -15.81923  26.47302
O     -13.98469  -17.1595  26.19758
C     -13.32335  -16.47638  27.24816
C     -11.89513  -16.2206  26.82871
O     -11.85216  -15.27888  25.72764
C     -11.01631  -15.58725  27.89953
O     -10.50498  -16.57359  28.78476
C     -9.94802  -14.89949  27.08508
O     -8.99042  -15.82336  26.63687
C     -10.72639  -14.4243  25.86757
N     -11.2154  -13.03661  25.97273
C     -10.24544  -12.02608  25.92171
O      -9.0565  -12.34862  25.82613
N     -10.65098  -10.74409  25.99414
C     -11.94103  -10.43985  26.07983
N     -12.25094  -9.14162  26.13989
C     -12.94587  -11.44409  26.10459
C     -12.5381  -12.71514   26.0469
P      -6.7282  -16.93556  22.77954
O     -5.42327  -16.61753  22.15188
O      -7.9606  -16.28183  22.25157
O     -6.97096  -18.50875  22.59419
C     -5.95513  -19.47276  22.85013
C     -6.58187  -20.8377  22.95102
O     -7.56139  -20.85955  24.03134
C     -8.21148  -22.41842  22.34742
O     -7.45998  -23.57814  22.64827
C       -8.589  -21.79269  23.68826
N     -9.86503  -21.07647  23.66855
C     -10.14408  -19.73743  23.60468
N     -11.42718  -19.46223  23.61266
C     -12.03419  -20.70655  23.72336
C     -13.37566  -21.10878  23.79358
N     -14.39863  -20.25648  23.77394
N     -13.63652  -22.42995  23.89827
C     -12.6056  -23.28579  23.91561
N     -11.29995  -23.03612  23.85004
C     -11.08708  -21.70822  23.76435
