42
C_A_14-G_A_27-1l2x.pdb
O     12.73684  20.52743  46.45472
O      9.53421  20.07723  41.78448
O     14.39537   18.6728  45.88587
O      9.53796  20.87718   44.2541
C      9.60904  17.90142  45.62339
O       9.3717  16.58885  45.06014
C      9.80132  17.65115   47.1088
O      9.45726   18.7866  47.87788
C      8.85795  16.49106  47.36138
O      7.52829  16.99027  47.40443
C      8.95486  15.69341  46.08232
N      9.92692  14.58097  46.09723
C      9.54009  13.41921  46.76972
O      8.44593  13.43501  47.35609
N     10.37686  12.35755  46.77573
C     11.53423  12.42653  46.12086
N     12.34165  11.36611   46.1515
C     11.94299  13.59155  45.42137
C     11.10602  14.63405  45.41885
P       -0.626   19.1586  41.50105
O     -1.45947  20.25009   40.9235
O     -1.19096  17.79014  41.56549
O      0.73429   19.0886  40.66729
C      1.45104  20.31062  40.45724
C      2.75195   20.0119  39.77608
O      3.60853  19.23711   40.6555
C      2.66078  19.15298  38.52286
O      2.28475  19.93588  37.39973
C      4.05939  18.58644  38.40954
O      4.96841   19.6025    37.956
C      4.43028  18.36772  39.86132
N      4.19779  17.02995  40.39741
C      3.12948  16.58838  41.13018
N      3.21645  15.32693   41.4629
C      4.42704  14.91563  40.92399
C      5.06977  13.65326  40.96794
O      4.68744  12.59673  41.50367
N      6.28329  13.69565  40.28929
C      6.80468  14.78629  39.64251
N      7.99209  14.64133  39.03402
N      6.21839  15.97422  39.60699
C      5.04151  15.95573  40.26186
