43
C_A_10-G_A_28-1l2x.pdb
P     -18.95979  19.17155  48.74308
O     -19.65103  18.11552  49.52479
O     -18.62855  20.47641  49.38817
O     -17.57796  18.64623  48.13323
C     -17.41772  17.30805  47.67615
C     -15.99192  17.08944  47.24555
O     -15.7007  17.79611  46.01221
C     -14.93778   17.6141  48.21349
O     -14.75208  16.73335  49.30572
C     -13.73174  17.71577  47.30686
O     -13.23688  16.43577  47.02192
C     -14.36359  18.29274  46.05027
N     -14.42414  19.76153  46.02047
C     -13.27967  20.49059  45.67955
O     -12.23273   19.8721  45.44392
N     -13.33584  21.84002  45.65363
C     -14.46315  22.48893   45.9257
N     -14.45554  23.82169  45.87989
C     -15.64209  21.77262  46.27679
C     -15.57761  20.44034   46.3029
P      -3.8716  30.24112  44.85328
O     -2.54343  30.59406   44.3047
O     -5.09877  30.59273  44.08902
O      -3.9008  28.68034  45.16401
C     -4.29636  27.72365  44.19464
C     -4.47571   26.3951  44.89621
O     -5.47562  26.49661   45.9471
C     -4.95848  25.25315  44.01059
O      -3.9104  24.66437  43.25645
C     -5.53086  24.29785  45.04111
O     -4.46514  23.70118  45.78421
C     -6.19283  25.26437  46.00949
N     -7.59376  25.56638  45.71712
C     -8.12717  26.79254  45.40589
N      -9.4146  26.74966  45.21451
C     -9.75671  25.42155  45.43299
C     -11.00916  24.76086  45.35988
O     -12.13023  25.22446  45.09463
N     -10.88897  23.40436  45.64484
C     -9.71748  22.75835   45.9451
N      -9.8147   21.4478  46.18374
N     -8.53962  23.35466    46.012
C     -8.63894  24.67423  45.73994
