40
C_A_10-C_A_10-1l2x.pdb
P     -11.71232  31.06641  44.01829
P     -11.71232  31.06641  44.01829
O     -13.01379  30.59752   44.5572
O     -13.01379  30.59752   44.5572
O     -10.91533  32.07628  44.77557
O     -10.91533  32.07628  44.77557
O     -10.70645  29.85001  43.76153
O     -10.70645  29.85001  43.76153
C     -11.1619  28.57959  43.30998
C     -11.1619  28.57959  43.30998
C     -10.00304  27.62069  43.24927
C     -10.00304  27.62069  43.24927
O     -9.10439  27.95002  42.15872
O     -9.10439  27.95002  42.15872
C     -9.09462   27.6279  44.47323
C     -9.09462   27.6279  44.47323
O     -9.65879  26.89194  45.54246
O     -9.65879  26.89194  45.54246
C     -7.83687  27.00644  43.90869
C     -7.83687  27.00644  43.90869
O     -8.02823  25.63211    43.711
O     -8.02823  25.63211    43.711
C      -7.7578  27.69444  42.55534
C      -7.7578  27.69444  42.55534
N     -7.03722  28.97606  42.56686
N     -7.03722  28.97606  42.56686
C     -5.63812  28.97891  42.55701
C     -5.63812  28.97891  42.55701
O     -5.04427  27.89207  42.57288
O     -5.04427  27.89207  42.57288
N     -4.97689  30.15679  42.56886
N     -4.97689  30.15679  42.56886
C     -5.62956  31.31436  42.56886
C     -5.62956  31.31436  42.56886
N     -4.91992  32.44341  42.57713
N     -4.91992  32.44341  42.57713
C     -7.05273  31.34105  42.58023
C     -7.05273  31.34105  42.58023
C     -7.69827  30.17357  42.57134
C     -7.69827  30.17357  42.57134
