43
C_A_15-G_A_7-1l2x.pdb
P     18.42098  -6.40869  34.68904
O     19.68627  -6.27086  33.91627
O     17.16663  -5.79494  34.16532
O     18.10589  -7.96015   34.8534
C      19.1112  -8.89335  35.25242
C     18.50139  -10.26813  35.20251
O     17.40639  -10.40943  36.12892
C     17.85462  -10.61734   33.8688
O     18.86295  -10.94113  32.92842
C     16.95637  -11.76708  34.26075
O     17.71983  -12.9399  34.48584
C     16.40583  -11.27334  35.59226
N     15.16015  -10.51454  35.49437
C     14.99881   -9.1564  35.37587
N     13.74623  -8.78578  35.31216
C     13.02905  -9.97204  35.38974
C     11.63736  -10.2188  35.38369
O     10.69571  -9.42298  35.28871
N     11.36371  -11.57949  35.49081
C      12.2925  -12.57736  35.59158
N     11.81153  -13.82574   35.6869
N     13.59717  -12.36181  35.61481
C     13.89056  -11.04657  35.50567
P      6.24982  -17.18404  40.30661
O      6.01222  -18.50447  40.95367
O      5.85077  -15.90759    40.964
O      7.83226  -17.07639  40.06659
C      8.56838  -18.18399  39.52817
C     10.02847  -17.81758  39.43617
O     10.26211  -16.81098    38.426
C     10.60502  -17.18191   40.6958
O     10.90637  -18.13581  41.69135
C     11.84899   -16.516  40.14594
O     12.77881  -17.50093   39.7215
C     11.29056  -15.91034  38.87813
N     10.69128  -14.56537   38.9812
C     11.55902  -13.47452  38.83794
O     12.77315  -13.6897  38.72324
N      11.0678  -12.21845   38.8609
C      9.75057  -12.02545  38.97004
N      9.30429  -10.76933  39.01637
C      8.83561  -13.10388  39.13194
C      9.34946  -14.3378  39.09596
