42
C_A_26-G_A_12-1l2x.pdb
P     -1.80516  -5.28736  -44.72879
O     -0.52649  -4.94757  -45.41781
O     -3.09054  -4.91493  -45.3786
O     -1.85052  -6.86891  -44.5178
C     -0.71194  -7.50369  -43.91744
C     -1.00512  -8.97085  -43.75756
O     -2.14286  -9.13122  -42.87198
C     -1.43098  -9.73348  -45.00361
C     -2.12712  -10.93795  -44.4039
O     -1.19459  -11.87927  -43.89941
C     -2.83537  -10.3319  -43.20742
N     -4.22998  -9.97355  -43.46037
C     -4.73543  -8.75412  -43.81384
N     -6.03404  -8.76675  -43.96204
C     -6.39831  -10.08347  -43.69807
C     -7.66487  -10.71783  -43.69898
O     -8.77661  -10.2371  -43.9502
N     -7.54808  -12.06269  -43.37597
C     -6.38986  -12.73034  -43.08165
N     -6.51815  -14.03638  -42.79518
N     -5.20192  -12.15529  -43.07472
C     -5.28849  -10.84115  -43.38445
P     -15.81775  -16.77353  -40.61078
O     -16.35837  -17.82027  -39.70141
O     -15.84347  -15.3556  -40.13563
O     -14.30501  -17.15042  -40.94081
C     -13.93199  -18.45318  -41.38953
C     -12.4697  -18.44464  -41.75272
O     -12.23258  -17.5444  -42.86181
C     -11.51441  -17.92392  -40.68627
O     -11.21674  -18.89728  -39.6999
C     -10.28839  -17.55756  -41.4995
O     -9.59353  -18.72315  -41.89163
C     -10.93931  -16.95913  -42.73486
N     -11.10664  -15.49472  -42.68526
C     -9.96027  -14.75354  -43.00138
O      -8.9388  -15.39905  -43.28439
N     -10.02522  -13.40546  -42.99439
C     -11.16007  -12.77247  -42.68466
N     -11.17408  -11.43753  -42.7069
C     -12.33982  -13.5033  -42.35701
C     -12.26319  -14.84423  -42.37811
