46
G_A_19-G_A_19-1l2x.pdb
P     -15.66017  -30.34118   29.0016
P     -15.66017  -30.34118   29.0016
O     -15.6435  -31.37022  30.05717
O     -15.6435  -31.37022  30.05717
O     -15.11308  -28.98542  29.24446
O     -15.11308  -28.98542  29.24446
O     -14.86282  -30.98166  27.76609
O     -14.86282  -30.98166  27.76609
C     -14.33639  -30.11506  26.76382
C     -14.33639  -30.11506  26.76382
C     -13.80126  -30.9864  25.65369
C     -13.80126  -30.9864  25.65369
O     -13.29919  -30.16665  24.58015
O     -13.29919  -30.16665  24.58015
C     -12.61623  -31.87734  26.01173
C     -12.61623  -31.87734  26.01173
O     -12.56705  -33.00115  25.15854
O     -12.56705  -33.00115  25.15854
C     -11.45998  -30.92421  25.82723
C     -11.45998  -30.92421  25.82723
O     -10.23145  -31.58979  25.58356
O     -10.23145  -31.58979  25.58356
C     -11.8802  -30.11788  24.61727
C     -11.8802  -30.11788  24.61727
N     -11.55163  -28.69231  24.63215
N     -11.55163  -28.69231  24.63215
C     -12.37738  -27.59704  24.61776
C     -12.37738  -27.59704  24.61776
N     -11.7251  -26.45865   24.6185
N     -11.7251  -26.45865   24.6185
C     -10.38926  -26.82896  24.62731
C     -10.38926  -26.82896  24.62731
C      -9.2001  -26.05548  24.62296
C      -9.2001  -26.05548  24.62296
O     -9.08262  -24.82312  24.62523
O     -9.08262  -24.82312  24.62523
N     -8.05359  -26.85731  24.62522
N     -8.05359  -26.85731  24.62522
C     -8.07879  -28.23018   24.6207
C     -8.07879  -28.23018   24.6207
N     -6.91266  -28.86873  24.62234
N     -6.91266  -28.86873  24.62234
N     -9.17698  -28.97812  24.62002
N     -9.17698  -28.97812  24.62002
C     -10.27044  -28.19567  24.62202
C     -10.27044  -28.19567  24.62202
