43
G_A_18-C_A_17-1l2x.pdb
P     -28.75312   4.21152  -5.76839
O     -30.18021   4.21319  -6.21025
O     -28.39267   4.67461  -4.41445
O     -28.16554   2.73534  -5.93097
C     -28.07318   1.82153  -4.85201
C     -27.0077   0.80186  -5.17787
O     -25.70081   1.42805  -5.20895
C     -26.86231  -0.32112   -4.1591
O     -27.81615  -1.34694  -4.39538
C     -25.43568  -0.76899  -4.36333
O     -25.32749  -1.58673  -5.49956
C     -24.72805   0.54068  -4.67642
N     -24.11426   1.18646  -3.50079
C     -22.99297   0.54953  -2.95157
O     -22.60877  -0.51261  -3.45255
N     -22.38994   1.11646  -1.88942
C     -22.82533    2.2682  -1.39136
N     -22.16121   2.75976  -0.34143
C     -23.94204    2.9485  -1.94721
C     -24.54606   2.37519  -2.99203
P      -28.326  -2.22435  -3.14191
O     -29.4555  -3.05661  -3.64506
O     -28.50096  -1.37997   -1.9358
O     -27.09996  -3.18009  -2.81569
C     -26.57031  -4.12463  -3.73708
C     -25.66736  -5.08998  -3.02302
O     -24.55978   -4.3609  -2.43504
C     -26.28204  -5.83052  -1.84721
O     -25.68623  -7.08898  -1.66152
C     -25.93121  -4.96835  -0.66157
O     -26.01361  -5.65033   0.56984
C     -24.50273  -4.56598  -1.04763
N     -24.1306  -3.35024  -0.34559
C     -24.76068  -2.13151  -0.49502
N     -24.23152  -1.20378   0.25952
C     -23.21693  -1.84654   0.94892
C     -22.30438  -1.34887   1.90982
O     -22.21939  -0.19967   2.35318
N     -21.43062  -2.33233   2.35957
C     -21.42432  -3.63196   1.92837
N     -20.4985  -4.43418   2.47903
N     -22.26686  -4.11059   1.02727
C     -23.13991  -3.17341   0.58627
