46
G_A_18-G_A_4-1l2x.pdb
P      2.54979  16.10933  23.99153
O      2.99381  15.11967   22.9909
O      1.13027   16.1808  24.43059
O      3.43368  15.86226  25.31193
C      4.86448  15.95159  25.19912
C      5.49291  15.84352  26.55902
O      5.10063  16.98773  27.35617
C      5.07313  14.66336  27.43037
O      5.74856  13.48517  27.03849
C      5.46336  15.16045  28.80834
O      6.87721  15.25036  28.93245
C      4.97845  16.59791  28.71741
N      3.58625  16.78295  29.11275
C      2.49523   17.0646  28.33868
N      1.40538   17.1776  29.04863
C      1.79209  16.96103  30.36325
C      1.05247  16.95226  31.57408
O     -0.16285  17.13917  31.76804
N      1.86707  16.68507  32.66847
C      3.21771  16.44651  32.60999
N      3.83354   16.2046  33.78005
N      3.92736  16.45936  31.49372
C      3.15229  16.72141  30.41987
P      4.48255  18.88689  40.48843
O      5.45051  19.10182  41.60129
O      3.52787  19.95732  40.11285
O      5.29817  18.56304  39.16445
C       6.2933  17.55101  39.07975
C      7.10137  17.72713  37.82552
O      6.22812  17.60094  36.67421
C      7.75496  19.08633  37.64061
O      8.93517  18.99281   36.8846
C      6.74377  19.86007  36.83378
O      7.29163  20.98145  36.17757
C      6.27548  18.75602  35.87812
N      4.96503  19.09082  35.34897
C       3.8229  19.23523  36.11011
N      2.77986  19.54615  35.38526
C      3.26223  19.62568  34.08958
C      2.59283  19.93042  32.88012
O      1.39901  20.20168  32.71996
N      3.44999  19.89914  31.78594
C      4.78442  19.59759    31.844
N      5.44689  19.61485  30.67578
N      5.42294  19.30542  32.96555
C      4.61064  19.34611  34.04884
