46
G_A_16-G_A_16-1l2x.pdb
P     -17.76152  -16.91628  31.47906
P     -17.76152  -16.91628  31.47906
O     -18.80633  -17.71177   32.1904
O     -18.80633  -17.71177   32.1904
O     -17.52632  -15.50525  31.87752
O     -17.52632  -15.50525  31.87752
O     -16.36593  -17.66547  31.60384
O     -16.36593  -17.66547  31.60384
C     -16.30071  -19.06336  31.29526
C     -16.30071  -19.06336  31.29526
C     -14.87802  -19.54342  31.32046
C     -14.87802  -19.54342  31.32046
O     -14.06969  -18.86732  30.33272
O     -14.06969  -18.86732  30.33272
C     -14.11741  -19.27799  32.62238
C     -14.11741  -19.27799  32.62238
O     -14.51802  -20.19942  33.61151
O     -14.51802  -20.19942  33.61151
C     -12.68831  -19.44935  32.18279
C     -12.68831  -19.44935  32.18279
O     -12.38286  -20.83718  31.97361
O     -12.38286  -20.83718  31.97361
C     -12.72767  -18.78377  30.81275
C     -12.72767  -18.78377  30.81275
N     -12.36697  -17.36693  30.81852
N     -12.36697  -17.36693  30.81852
C     -13.18825  -16.27717  30.82303
C     -13.18825  -16.27717  30.82303
N     -12.53924  -15.13698  30.81903
N     -12.53924  -15.13698  30.81903
C     -11.20253  -15.50818   30.8131
C     -11.20253  -15.50818   30.8131
C     -10.01623  -14.73578  30.81653
C     -10.01623  -14.73578  30.81653
O     -9.89871  -13.50389  30.81516
O     -9.89871  -13.50389  30.81516
N       -8.877  -15.53485  30.81625
N       -8.877  -15.53485  30.81625
C     -8.86514  -16.9042  30.81681
C     -8.86514  -16.9042  30.81681
N     -7.65107  -17.48674  30.81507
N     -7.65107  -17.48674  30.81507
N     -9.96312  -17.62984   30.8149
N     -9.96312  -17.62984   30.8149
C     -11.07743  -16.88179  30.81062
C     -11.07743  -16.88179  30.81062
