43
G_A_28-C_A_11-1l2x.pdb
P     -34.23046   -0.3897  -14.12602
O     -34.39728  -0.93697  -15.49983
O     -35.35065   0.38451  -13.52002
O     -33.97849  -1.59423  -13.11437
C     -32.93665  -2.54237  -13.35536
C     -32.87418  -3.49065  -12.18838
O     -32.4831  -2.78187  -10.98366
C     -34.18695  -4.15757  -11.79191
O     -34.49077  -5.22996  -12.65858
C     -33.90036  -4.60684  -10.37873
O     -32.96418  -5.68336  -10.40807
C     -33.14998  -3.38272  -9.87524
N     -34.03145   -2.3666  -9.26977
C     -34.50956  -2.66697  -7.98816
O     -34.18684   -3.7624  -7.48658
N     -35.27321  -1.74628  -7.37215
C     -35.58564   -0.6003  -7.98477
N     -36.37239   0.25825  -7.33582
C     -35.10162  -0.27371  -9.28655
C     -34.34123  -1.19615  -9.88525
P     -34.36952  -4.55831   3.06101
O     -33.81404   -5.4305   4.11945
O     -34.26754  -3.08039   3.19879
O     -33.73555   -4.9795   1.66311
C     -32.52699  -4.41577   1.18041
C     -32.36883  -4.82154  -0.26864
O     -33.49703  -4.35887  -1.06084
C     -31.14231  -4.25347   -0.9718
O     -29.95929  -4.98232  -0.68354
C     -31.55057  -4.37444  -2.42813
O     -31.5363  -5.75036   -2.8162
C     -33.02212  -4.00061  -2.35807
N     -33.30556  -2.57759  -2.54243
C     -33.88664   -1.7265  -1.63533
N     -34.02612  -0.51622  -2.09545
C     -33.52801  -0.57474  -3.39049
C     -33.40146   0.42965  -4.38329
O     -33.72957   1.62652  -4.33955
N     -32.82665  -0.07139  -5.54703
C     -32.41028  -1.36455  -5.73214
N     -31.87819  -1.64455  -6.92479
N     -32.51363  -2.31342   -4.8176
C     -33.07253  -1.84374  -3.68086
