46
G_A_2-G_A_4-1l2x.pdb
P     22.13452  22.24171  -19.21123
O     20.86954  22.66636  -18.56396
O     23.41851   22.8226  -18.70854
O     22.28059  20.64489  -19.06995
C     21.22703  19.81142  -19.54627
C     21.79031  18.54272  -20.12638
O     22.35368  18.74354  -21.44721
C     22.94468   17.9522  -19.3123
O     22.45393  17.25635  -18.1822
C     23.60964  17.06137  -20.32632
O     22.86217  15.88417  -20.57329
C     23.55256   17.9733  -21.53978
N     24.66475  18.91896  -21.61204
C     24.57939  20.28471  -21.63052
N     25.74343  20.85889  -21.71756
C     26.65305  19.81534  -21.77578
C     28.06541  19.84295  -21.87482
O     28.81087  20.82224  -21.93505
N     28.60254  18.56333  -21.90305
C     27.84991   17.4171  -21.83691
N     28.53927  16.27805  -21.88345
N     26.53431  17.37964  -21.75091
C     25.99628  18.61208  -21.71689
P     26.77558  13.96846  -14.08388
O     26.37048  12.89176  -13.15951
O     26.33914  15.37456   -13.871
O      28.3834  13.97853  -14.10776
C     29.06536  12.77414  -14.49799
C     30.54103  13.03298  -14.6043
O     30.78234  13.97371  -15.67917
C     31.22073  13.69927  -13.41169
O     31.47237  12.75819  -12.38751
C     32.47748  14.24869  -14.05738
O      33.3435  13.19408  -14.4577
C     31.89273  14.79689  -15.34859
N     31.41646  16.17245  -15.24988
C     30.13479    16.648  -15.24536
N     30.09444  17.95013  -15.15934
C     31.41815  18.36186  -15.1051
C     32.00069  19.65169  -15.00403
O     31.45717   20.7694  -14.93418
N     33.38909  19.58487  -14.98072
C     34.12664  18.42841  -15.03703
N     35.46293  18.56886  -14.99958
N     33.60411  17.21762  -15.14086
C     32.25516  17.26363  -15.16885
