46
G_A_2-G_A_18-1l2x.pdb
P     -18.35932  18.44534  19.94074
O     -18.91007  17.84695  18.70057
O     -18.93643  18.01582  21.25269
O     -16.78402  18.12358  20.01843
C     -15.94905   18.4988  18.92592
C     -14.59907  18.93231  19.42896
O     -14.62347  20.26905  19.99005
C     -14.05461  18.05965  20.56299
O     -13.51398  16.85623  20.05145
C     -13.02589  18.96757  21.18059
O     -11.86233   19.0767  20.38076
C     -13.79565  20.27681  21.15357
N     -14.67705  20.45954  22.30518
C     -16.03427  20.63317  22.27908
N     -16.54301  20.78843  23.46623
C     -15.46055  20.73009  24.32918
C     -15.41448  20.83575  25.74058
O     -16.34678  21.00929  26.52737
N     -14.11752  20.71965  26.22138
C     -13.02052  20.52121  25.42022
N     -11.85429  20.43975  26.05906
N     -13.05106  20.42766  24.10496
C     -14.30188  20.53264  23.62125
P     -17.70545  17.42936  38.64555
O     -17.48026  17.89871  40.04219
O     -18.36175   18.3179  37.65658
O     -16.30142  17.04926  38.00738
C     -15.37038   16.1666  38.62034
C     -14.03031  16.28639  37.95177
O     -14.15854  15.91149  36.55642
C     -13.43464   17.6833  37.90109
O     -12.03051  17.64538  37.88861
C     -13.89903  18.21962   36.5711
O     -13.13453   19.3112   36.1104
C     -13.74629  16.95659  35.71498
N     -14.59288   17.0576   34.5392
C     -15.96952  17.15102  34.56692
N     -16.48498  17.23779  33.36825
C     -15.39538  17.21675  32.51378
C     -15.33786  17.28438  31.10103
O     -16.27754  17.38281  30.30619
N     -14.03198   17.2258  30.62755
C     -12.91787  17.10251  31.41405
N     -11.74014  17.05832  30.76993
N     -12.95574  17.03259  32.73489
C     -14.2182  17.10469  33.22067
