42
G_A_12-C_A_8-1l2x.pdb
P     -31.05723   5.96055  13.64526
O     -30.55999   6.23465  15.02415
O     -30.60431   6.81908  12.52752
O     -30.7225   4.44687  13.32065
C     -29.62434   3.99115  12.53922
C     -29.70734   2.48717  12.56899
O     -30.83298    2.0232  11.77364
C     -28.53315   1.72968  11.96051
O     -27.40126   1.78321  12.81487
C     -29.17384   0.36458  11.79769
O      -29.246  -0.25154  13.04709
C     -30.5758   0.73607  11.28163
N     -30.55318   0.70483   9.81682
C     -30.49388  -0.55539   9.21798
O     -30.52314  -1.54222   9.96561
N     -30.37762  -0.64698   7.87824
C     -30.28221    0.4636   7.14173
N     -30.21227   0.31193   5.81729
C     -30.35167   1.76178   7.72102
C     -30.46045   1.83027   9.05721
P     -29.34304   0.72686  -0.25159
O     -29.88278    1.0646  -1.60059
O     -29.90156   1.42277   0.93876
O     -29.56552  -0.83431   -0.0043
C     -29.12879  -1.74865  -1.02066
C     -29.3761  -3.15445  -0.54456
O     -28.59533  -3.39092   0.65498
C     -30.79155  -3.49972  -0.10537
C     -30.55507  -4.71707   0.76476
O     -30.29817   -5.8721  -0.01633
C     -29.25826  -4.35924   1.46529
N     -29.44117  -3.76677   2.78924
C     -29.46712  -2.44181   3.12275
N     -29.64629   -2.2441   4.40233
C     -29.7548  -3.52411   4.93704
C     -29.9582  -3.96359   6.26822
O     -30.09939  -3.29181   7.29728
N     -30.00514  -5.34931    6.3331
C     -29.87144  -6.21719   5.28298
N     -29.9494  -7.52396   5.58388
N     -29.68016  -5.82564   4.03717
C     -29.6279  -4.47676   3.94682
